data/pglib_opf_case3022_goc_storage.m
%%%%%%%%%%%%%%%%%%%%%%%%%%%%%%%%%%%%%%%%%%%%%%%%%%%%%%%%%%%%%%%%%%%%%%%%%%%
%%%%                                                                  %%%%%
%%%%    IEEE PES Power Grid Library - Optimal Power Flow - v23.07     %%%%%
%%%%          (https://github.com/power-grid-lib/pglib-opf)           %%%%%
%%%%               Benchmark Group - Typical Operations               %%%%%
%%%%                         23 - July - 2023                         %%%%%
%%%%                                                                  %%%%%
%%%%%%%%%%%%%%%%%%%%%%%%%%%%%%%%%%%%%%%%%%%%%%%%%%%%%%%%%%%%%%%%%%%%%%%%%%%
%
%   A 3,022 bus model created by the Sustainable Data Evolution Technology (SDET)
%   tool for use in ARPA-e's Grid Optimization Competition, Challenge 1.
%
%   https://gocompetition.energy.gov/challenges/22/datasets
%
%   Developed by Renke Huang and Ahmad Tbaileh,
%   Pacific Northwest National Laboratory, U.S.A.
%   Provided in the public domain. February, 2020
%
% Modified to have additional storage capacity and increased gencost
function mpc = pglib_opf_case3022_goc
mpc.version = '2';
mpc.baseMVA = 100.0;

%% bus data
%	bus_i	type	Pd	Qd	Gs	Bs	area	Vm	Va	baseKV	zone	Vmax	Vmin
mpc.bus = [
	1	 1	 0.0	 0.0	 0.0	 10.7088450599	 1	    1.00000	    0.00000	 230.0	 1	    1.05000	    0.95000;
	2	 1	 0.0	 0.0	 0.0	 0.0	 1	    1.00772	    0.00000	 1.0	 1	    1.06544	    0.95000;
	3	 1	 0.0	 0.0	 0.0	 -18.6298909061	 1	    1.00000	    0.00000	 115.0	 1	    1.05000	    0.95000;
	4	 1	 -87.672	 20.928	 0.0	 8.95926743971	 1	    1.00000	    0.00000	 115.0	 1	    1.05000	    0.95000;
	5	 1	 112.958	 -26.822	 0.0	 10.4858880796	 1	    1.00000	    0.00000	 115.0	 1	    1.05000	    0.95000;
	6	 1	 0.0	 0.0	 0.0	 0.0	 1	    1.00000	    0.00000	 230.0	 1	    1.05000	    0.95000;
	7	 1	 -146.866	 -0.759	 0.0	 -15.929963951	 1	    1.00000	    0.00000	 115.0	 1	    1.05000	    0.95000;
	8	 1	 0.0	 0.0	 0.0	 27.5488096085	 1	    1.00000	    0.00000	 115.0	 1	    1.05000	    0.95000;
	9	 2	 100.773	 -42.513	 0.0	 0.0	 1	    1.00000	    0.00000	 115.0	 1	    1.05000	    0.95000;
	10	 1	 0.0	 0.0	 0.0	 -0.00247428697143	 1	    1.00000	    0.00000	 115.0	 1	    1.05000	    0.95000;
	11	 1	 42.282	 5.533	 0.0	 0.0	 1	    1.00000	    0.00000	 115.0	 1	    1.05000	    0.95000;
	12	 1	 22.891	 2.788	 0.0	 2.65714737811	 1	    1.00000	    0.00000	 230.0	 1	    1.05000	    0.95000;
	13	 1	 0.0	 0.0	 0.0	 -27.9687572032	 1	    1.00000	    0.00000	 230.0	 1	    1.05000	    0.95000;
	14	 1	 259.475	 -10.863	 0.0	 2.47605317836e-05	 1	    1.00772	    0.00000	 345.0	 1	    1.06544	    0.95000;
	15	 1	 -87.69	 20.928	 0.0	 8.99926608727	 1	    1.00000	    0.00000	 115.0	 1	    1.05000	    0.95000;
	16	 1	 123.768	 -1.149	 0.0	 -17.445	 1	    1.00000	    0.00000	 230.0	 1	    1.05000	    0.95000;
	17	 1	 26.673	 7.244	 0.0	 1.56971077193	 1	    1.00000	    0.00000	 230.0	 1	    1.05000	    0.95000;
	18	 1	 38.081	 2.859	 0.0	 21.1150845864	 1	    1.00000	    0.00000	 230.0	 1	    1.05000	    0.95000;
	19	 1	 0.0	 0.0	 0.0	 0.0	 1	    1.01429	    0.00000	 500.0	 1	    1.07859	    0.95000;
	20	 1	 0.0	 0.0	 0.0	 0.0	 1	    1.00772	    0.00000	 1.0	 1	    1.06544	    0.95000;
	21	 1	 -88.375	 27.367	 0.0	 0.0	 1	    1.00000	    0.00000	 22.8	 1	    1.05000	    0.95000;
	22	 1	 0.0	 0.0	 0.0	 47.4985061457	 1	    1.00000	    0.00000	 230.0	 1	    1.05000	    0.95000;
	23	 2	 0.0	 0.0	 0.0	 10.787	 1	    1.00000	    0.00000	 345.0	 1	    1.05000	    0.95000;
	24	 1	 0.0	 0.0	 0.0	 -9.73913034417	 1	    1.00000	    0.00000	 138.0	 1	    1.05000	    0.95000;
	25	 2	 -99.44	 21.918	 0.0	 0.0	 1	    1.00000	    0.00000	 21.0	 1	    1.05000	    0.95000;
	26	 1	 100.532	 -20.512	 0.0	 -1.07635204534	 1	    1.00000	    0.00000	 230.0	 1	    1.05000	    0.95000;
	27	 2	 139.936	 -38.636	 0.0	 0.0	 1	    1.00000	    0.00000	 115.0	 1	    1.05000	    0.95000;
	28	 1	 -200.472	 -6.634	 0.0	 -14.7599583523	 1	    1.00826	    0.00000	 115.0	 1	    1.06652	    0.95000;
	29	 1	 0.0	 0.0	 0.0	 3.32755327965	 1	    1.00000	    0.00000	 115.0	 1	    1.05000	    0.95000;
	30	 1	 81.381	 24.638	 0.0	 44.5470035005	 1	    1.00000	    0.00000	 161.0	 1	    1.05000	    0.95000;
	31	 1	 0.0	 0.0	 0.0	 36.8036356464	 1	    1.00000	    0.00000	 230.0	 1	    1.05000	    0.95000;
	32	 1	 82.398	 -19.261	 0.0	 -0.895305326082	 1	    1.00000	    0.00000	 161.0	 1	    1.05000	    0.95000;
	33	 1	 -45.455	 26.257	 0.0	 6.056789459e-05	 1	    1.00000	    0.00000	 115.0	 1	    1.05000	    0.95000;
	34	 1	 96.915	 77.402	 0.0	 118.618169754	 1	    1.00000	    0.00000	 115.0	 1	    1.05000	    0.95000;
	35	 1	 28.542	 5.107	 0.0	 0.0	 1	    1.00000	    0.00000	 230.0	 1	    1.05000	    0.95000;
	36	 1	 0.0	 0.0	 0.0	 -0.349609780844	 1	    1.00000	    0.00000	 138.0	 1	    1.05000	    0.95000;
	37	 1	 0.0	 0.0	 0.0	 -2.33996268212	 1	    1.00000	    0.00000	 230.0	 1	    1.05000	    0.95000;
	38	 1	 0.0	 0.0	 0.0	 -9.08994151997	 1	    1.00000	    0.00000	 230.0	 1	    1.05000	    0.95000;
	39	 1	 0.0	 0.0	 0.0	 4.25160694973e-05	 1	    1.00972	    0.00000	 230.0	 1	    1.06945	    0.95000;
	40	 1	 0.0	 0.0	 0.0	 0.0	 1	    1.00000	    0.00000	 230.0	 1	    1.05000	    0.95000;
	41	 1	 0.0	 0.0	 0.0	 -5.94944609868	 1	    1.00000	    0.00000	 161.0	 1	    1.05000	    0.95000;
	42	 2	 33.761	 5.625	 0.0	 0.0	 1	    1.00000	    0.00000	 230.0	 1	    1.05000	    0.95000;
	43	 1	 0.0	 0.0	 0.0	 -37.4103850833	 1	    1.00000	    0.00000	 230.0	 1	    1.05000	    0.95000;
	44	 1	 -146.857	 -1.277	 0.0	 -16.4699639484	 1	    1.00000	    0.00000	 115.0	 1	    1.05000	    0.95000;
	45	 1	 0.0	 0.0	 0.0	 0.975274527807	 1	    1.00000	    0.00000	 230.0	 1	    1.05000	    0.95000;
	46	 2	 0.0	 0.0	 0.0	 0.0	 1	    1.00000	    0.00000	 1.0	 1	    1.05000	    0.95000;
	47	 1	 141.537	 -33.307	 0.0	 1.52802945537	 1	    1.00000	    0.00000	 115.0	 1	    1.05000	    0.95000;
	48	 1	 0.0	 0.0	 0.0	 10.2595185715	 1	    1.00000	    0.00000	 230.0	 1	    1.05000	    0.95000;
	49	 1	 31.198	 3.941	 0.0	 0.00109973857814	 1	    1.00000	    0.00000	 115.0	 1	    1.05000	    0.95000;
	50	 1	 22.205	 -5.042	 0.0	 29.0439740368	 1	    1.00000	    0.00000	 230.0	 1	    1.05000	    0.95000;
	51	 2	 0.0	 0.0	 0.0	 0.0	 1	    1.00000	    0.00000	 1.0	 1	    1.05000	    0.95000;
	52	 1	 21.576	 2.526	 0.0	 1.14866320306	 1	    1.00000	    0.00000	 230.0	 1	    1.05000	    0.95000;
	53	 1	 0.0	 0.0	 0.0	 -172.229974873	 1	    1.00772	    0.00000	 500.0	 1	    1.06544	    0.95000;
	54	 1	 190.036	 11.916	 0.0	 0.0	 1	    1.00000	    0.00000	 230.0	 1	    1.05000	    0.95000;
	55	 1	 0.0	 0.0	 0.0	 0.0	 1	    1.00000	    0.00000	 25.0	 2	    1.05000	    0.95000;
	56	 1	 0.0	 0.0	 0.0	 0.0	 1	    1.00000	    0.00000	 115.0	 2	    1.05000	    0.95000;
	57	 1	 0.0	 0.0	 0.0	 0.0	 1	    1.00000	    0.00000	 12.0	 2	    1.05000	    0.95000;
	58	 1	 0.0	 0.0	 0.0	 0.0	 1	    1.00000	    0.00000	 115.0	 2	    1.05000	    0.95000;
	59	 1	 10.549	 -8.986	 0.0	 -6.70459040187	 1	    1.00000	    0.00000	 115.0	 2	    1.05000	    0.95000;
	60	 2	 0.0	 0.0	 0.0	 0.0	 1	    1.00000	    0.00000	 25.0	 2	    1.05000	    0.95000;
	61	 1	 -0.481	 0.546	 0.0	 0.0	 1	    1.00000	    0.00000	 22.0	 2	    1.05000	    0.95000;
	62	 1	 0.0	 0.0	 0.0	 0.0	 1	    1.00000	    0.00000	 115.0	 2	    1.05000	    0.95000;
	63	 1	 9.4	 -0.518	 0.0	 0.0	 1	    1.00000	    0.00000	 115.0	 2	    1.05000	    0.95000;
	64	 1	 0.0	 0.0	 0.0	 0.0	 1	    1.00000	    0.00000	 115.0	 2	    1.05000	    0.95000;
	65	 1	 0.0	 0.0	 0.0	 0.0	 1	    1.00000	    0.00000	 25.0	 2	    1.05000	    0.95000;
	66	 1	 3.756	 -5.847	 0.0	 -15.861	 1	    1.00000	    0.00000	 115.0	 2	    1.05000	    0.95000;
	67	 1	 0.0	 0.0	 0.0	 0.0	 1	    1.00000	    0.00000	 115.0	 2	    1.05000	    0.95000;
	68	 1	 0.0	 0.0	 0.0	 0.0	 1	    1.00000	    0.00000	 12.0	 2	    1.05000	    0.95000;
	69	 1	 0.0	 0.0	 0.0	 0.0	 1	    1.00000	    0.00000	 115.0	 2	    1.05000	    0.95000;
	70	 2	 0.0	 0.0	 0.0	 0.0	 1	    1.00000	    0.00000	 34.5	 2	    1.05000	    0.95000;
	71	 1	 0.0	 0.0	 0.0	 0.0	 1	    1.00000	    0.00000	 1.0	 3	    1.05000	    0.95000;
	72	 1	 0.0	 0.0	 0.0	 0.0	 1	    1.00000	    0.00000	 345.0	 3	    1.05000	    0.95000;
	73	 2	 0.0	 0.0	 0.0	 0.0	 1	    1.00000	    0.00000	 765.0	 3	    1.05000	    0.95000;
	74	 1	 65.606	 30.013	 0.0	 17.9999729176	 1	    1.00000	    0.00000	 138.0	 3	    1.05000	    0.95000;
	75	 3	 27.509	 -14.278	 0.0	 0.0	 1	    1.00000	    0.00000	 345.0	 3	    1.05000	    0.95000;
	76	 1	 0.0	 0.0	 0.0	 0.0	 1	    1.00000	    0.00000	 345.0	 3	    1.05000	    0.95000;
	77	 1	 5.042	 1.397	 0.0	 0.000101257434274	 1	    1.00000	    0.00000	 138.0	 3	    1.05000	    0.95000;
	78	 2	 10.362	 -0.601	 0.0	 0.0	 1	    1.00000	    0.00000	 138.0	 3	    1.05000	    0.95000;
	79	 1	 51.894	 -1.369	 0.0	 0.0	 1	    1.00000	    0.00000	 138.0	 3	    1.05000	    0.95000;
	80	 1	 0.0	 0.0	 0.0	 0.0	 1	    1.00000	    0.00000	 18.0	 3	    1.05000	    0.95000;
	81	 1	 19.781	 4.459	 0.0	 0.0	 1	    1.00000	    0.00000	 138.0	 3	    1.05000	    0.95000;
	82	 1	 0.0	 0.0	 0.0	 0.0	 1	    1.00000	    0.00000	 13.8	 3	    1.05000	    0.95000;
	83	 1	 -6.023	 6.032	 0.0	 0.0	 1	    1.00000	    0.00000	 345.0	 3	    1.05000	    0.95000;
	84	 1	 0.0	 0.0	 0.0	 0.0	 1	    1.00000	    0.00000	 345.0	 3	    1.05000	    0.95000;
	85	 1	 27.618	 2.498	 0.0	 0.0	 1	    1.00000	    0.00000	 138.0	 3	    1.05000	    0.95000;
	86	 1	 43.725	 5.274	 0.0	 0.0	 1	    1.00000	    0.00000	 138.0	 3	    1.05000	    0.95000;
	87	 1	 440.096	 7.094	 0.0	 0.0	 1	    1.00000	    0.00000	 345.0	 3	    1.05000	    0.95000;
	88	 1	 49.09	 12.78	 0.0	 0.0	 1	    1.00000	    0.00000	 345.0	 3	    1.05000	    0.95000;
	89	 1	 175.569	 2.033	 0.0	 0.0	 1	    1.00000	    0.00000	 345.0	 3	    1.05000	    0.95000;
	90	 1	 32.114	 8.836	 0.0	 0.0	 1	    1.00000	    0.00000	 138.0	 3	    1.05000	    0.95000;
	91	 1	 9.326	 2.22	 0.0	 0.0	 1	    1.00000	    0.00000	 138.0	 3	    1.05000	    0.95000;
	92	 1	 36.222	 -4.376	 0.0	 17.9999163045	 1	    1.00000	    0.00000	 138.0	 3	    1.05000	    0.95000;
	93	 1	 126.715	 -21.509	 0.0	 0.0	 1	    1.00000	    0.00000	 345.0	 3	    1.05000	    0.95000;
	94	 1	 19.078	 3.867	 0.0	 6.72995032906	 1	    1.00000	    0.00000	 138.0	 3	    1.05000	    0.95000;
	95	 1	 0.0	 0.0	 0.0	 0.0	 1	    1.00000	    0.00000	 345.0	 3	    1.05000	    0.95000;
	96	 2	 14.914	 3.164	 0.0	 0.0	 1	    1.00000	    0.00000	 138.0	 3	    1.05000	    0.95000;
	97	 1	 141.874	 -28.757	 0.0	 0.0	 1	    1.00000	    0.00000	 138.0	 3	    1.05000	    0.95000;
	98	 1	 26.007	 9.641	 0.0	 0.0	 1	    1.00000	    0.00000	 138.0	 3	    1.05000	    0.95000;
	99	 1	 43.939	 9.981	 0.0	 17.0424703175	 1	    1.00000	    0.00000	 138.0	 3	    1.05000	    0.95000;
	100	 1	 0.0	 0.0	 0.0	 0.0	 1	    1.00000	    0.00000	 1.0	 3	    1.05000	    0.95000;
	101	 1	 0.0	 0.0	 0.0	 0.0	 1	    1.00000	    0.00000	 345.0	 3	    1.05000	    0.95000;
	102	 1	 0.0	 0.0	 0.0	 0.0	 1	    1.00000	    0.00000	 138.0	 3	    1.05000	    0.95000;
	103	 1	 29.292	 -24.573	 0.0	 0.0	 1	    1.00000	    0.00000	 138.0	 3	    1.05000	    0.95000;
	104	 1	 0.0	 0.0	 0.0	 0.0	 1	    1.00000	    0.00000	 345.0	 3	    1.05000	    0.95000;
	105	 1	 0.0	 0.0	 0.0	 0.0	 1	    1.00000	    0.00000	 345.0	 3	    1.05000	    0.95000;
	106	 1	 0.0	 0.0	 0.0	 0.0	 1	    1.00000	    0.00000	 13.8	 3	    1.05000	    0.95000;
	107	 1	 4.173	 2.23	 0.0	 2.99974245453	 1	    1.00000	    0.00000	 138.0	 3	    1.05000	    0.95000;
	108	 1	 0.0	 0.0	 0.0	 0.0	 1	    1.00000	    0.00000	 345.0	 3	    1.05000	    0.95000;
	109	 1	 81.731	 -8.477	 0.0	 0.0	 1	    1.00000	    0.00000	 345.0	 3	    1.05000	    0.95000;
	110	 1	 0.0	 0.0	 0.0	 7.77591109521	 1	    1.00000	    0.00000	 138.0	 3	    1.05000	    0.95000;
	111	 1	 0.0	 0.0	 0.0	 0.0	 1	    1.00000	    0.00000	 138.0	 3	    1.05000	    0.95000;
	112	 2	 21.751	 27.682	 0.0	 0.0	 1	    1.00000	    0.00000	 138.0	 3	    1.05000	    0.95000;
	113	 1	 631.406	 -96.165	 0.0	 0.0	 1	    1.00000	    0.00000	 345.0	 3	    1.05000	    0.95000;
	114	 1	 70.596	 -16.946	 0.0	 -17.2793617853	 1	    1.00000	    0.00000	 138.0	 3	    1.05000	    0.95000;
	115	 1	 30.31	 13.082	 0.0	 0.0	 1	    1.00000	    0.00000	 138.0	 3	    1.05000	    0.95000;
	116	 2	 26.683	 1.48	 0.0	 51.25	 1	    1.00000	    0.00000	 138.0	 3	    1.05000	    0.95000;
	117	 1	 14.516	 -2.998	 0.0	 0.0	 1	    1.00000	    0.00000	 13.8	 3	    1.05000	    0.95000;
	118	 1	 0.0	 0.0	 0.0	 0.0	 1	    1.00000	    0.00000	 345.0	 3	    1.05000	    0.95000;
	119	 1	 -1.591	 5.727	 0.0	 0.0	 1	    1.00000	    0.00000	 24.0	 3	    1.05000	    0.95000;
	120	 1	 0.0	 0.0	 0.0	 0.0	 1	    1.00000	    0.00000	 138.0	 3	    1.05000	    0.95000;
	121	 1	 0.0	 0.0	 0.0	 0.0	 1	    1.00000	    0.00000	 345.0	 3	    1.05000	    0.95000;
	122	 1	 2.785	 -9.493	 0.0	 8.54916974918e-05	 1	    1.00000	    0.00000	 138.0	 3	    1.05000	    0.95000;
	123	 1	 33.057	 1.721	 0.0	 0.0	 1	    1.00000	    0.00000	 138.0	 3	    1.05000	    0.95000;
	124	 1	 0.0	 0.0	 0.0	 0.0	 1	    1.00000	    0.00000	 138.0	 3	    1.05000	    0.95000;
	125	 1	 0.0	 0.0	 0.0	 0.0	 1	    1.00000	    0.00000	 18.0	 3	    1.05000	    0.95000;
	126	 1	 0.0	 0.0	 0.0	 0.0	 1	    1.00000	    0.00000	 18.0	 3	    1.05000	    0.95000;
	127	 1	 0.0	 0.0	 0.0	 0.0	 1	    1.00000	    0.00000	 345.0	 3	    1.05000	    0.95000;
	128	 1	 31.587	 9.021	 0.0	 0.0	 1	    1.00000	    0.00000	 138.0	 3	    1.05000	    0.95000;
	129	 2	 -1.601	 5.607	 0.0	 0.0	 1	    1.00000	    0.00000	 24.0	 3	    1.05000	    0.95000;
	130	 1	 -42.957	 4.376	 0.0	 0.0	 1	    1.00000	    0.00000	 138.0	 3	    1.05000	    0.95000;
	131	 1	 3.599	 1.11	 0.0	 -5.34587821331	 1	    1.00000	    0.00000	 138.0	 3	    1.05000	    0.95000;
	132	 1	 113.263	 14.479	 0.0	 0.0	 1	    1.00000	    0.00000	 138.0	 3	    1.05000	    0.95000;
	133	 1	 41.208	 17.209	 0.0	 6.68996138034	 1	    1.00000	    0.00000	 138.0	 3	    1.05000	    0.95000;
	134	 1	 21.751	 12.962	 0.0	 7.69978252224	 1	    1.00000	    0.00000	 138.0	 3	    1.05000	    0.95000;
	135	 1	 0.0	 0.0	 0.0	 0.0	 1	    1.00000	    0.00000	 345.0	 3	    1.05000	    0.95000;
	136	 1	 2.889	 -10.705	 0.0	 -6.75633000352	 1	    1.00000	    0.00000	 138.0	 3	    1.05000	    0.95000;
	137	 1	 0.0	 0.0	 0.0	 0.0	 1	    1.00000	    0.00000	 345.0	 3	    1.05000	    0.95000;
	138	 1	 29.125	 3.386	 0.0	 0.0	 1	    1.00000	    0.00000	 138.0	 3	    1.05000	    0.95000;
	139	 1	 -4.691	 0.111	 0.0	 6.74995867	 1	    1.00000	    0.00000	 138.0	 3	    1.05000	    0.95000;
	140	 1	 14.526	 -2.998	 0.0	 0.0	 1	    1.00000	    0.00000	 13.8	 3	    1.05000	    0.95000;
	141	 2	 0.0	 0.0	 0.0	 0.0	 1	    1.00000	    0.00000	 345.0	 3	    1.05000	    0.95000;
	142	 1	 0.0	 0.0	 0.0	 -249.996582478	 1	    1.00000	    0.00000	 345.0	 3	    1.05000	    0.95000;
	143	 1	 0.0	 0.0	 0.0	 0.0	 1	    1.00000	    0.00000	 345.0	 3	    1.05000	    0.95000;
	144	 1	 11.658	 0.731	 0.0	 2.33991149862	 1	    1.00000	    0.00000	 138.0	 3	    1.05000	    0.95000;
	145	 1	 32.317	 9.687	 0.0	 0.0	 1	    1.00000	    0.00000	 138.0	 3	    1.05000	    0.95000;
	146	 1	 5.533	 9.317	 0.0	 0.0	 1	    1.00000	    0.00000	 138.0	 3	    1.05000	    0.95000;
	147	 2	 17.051	 3.969	 0.0	 0.0	 1	    1.00000	    0.00000	 138.0	 3	    1.05000	    0.95000;
	148	 1	 28.024	 14.156	 0.0	 0.0	 1	    1.00000	    0.00000	 138.0	 3	    1.05000	    0.95000;
	149	 1	 35.185	 19.42	 0.0	 13.5364791991	 1	    1.00000	    0.00000	 138.0	 3	    1.05000	    0.95000;
	150	 1	 0.962	 2.933	 0.0	 0.0	 1	    1.00000	    0.00000	 138.0	 3	    1.05000	    0.95000;
	151	 1	 0.0	 0.0	 0.0	 0.0	 1	    1.00000	    0.00000	 230.0	 4	    1.05000	    0.95000;
	152	 2	 0.0	 0.0	 0.0	 0.0	 1	    1.00000	    0.00000	 25.0	 4	    1.05000	    0.95000;
	153	 1	 28.293	 4.941	 0.0	 0.0	 1	    1.00000	    0.00000	 115.0	 4	    1.05000	    0.95000;
	154	 2	 36.027	 -0.712	 0.0	 0.0	 1	    1.00000	    0.00000	 46.0	 4	    1.05000	    0.95000;
	155	 1	 0.0	 0.0	 0.0	 0.0	 1	    1.00000	    0.00000	 115.0	 4	    1.05000	    0.95000;
	156	 1	 8.993	 1.305	 0.0	 0.0	 1	    1.00000	    0.00000	 115.0	 4	    1.05000	    0.95000;
	157	 1	 0.0	 0.0	 0.0	 0.0	 1	    1.00000	    0.00000	 46.0	 4	    1.05000	    0.95000;
	158	 1	 0.0	 0.0	 0.0	 0.0	 1	    1.00000	    0.00000	 115.0	 4	    1.05000	    0.95000;
	159	 1	 7.115	 1.601	 0.0	 0.0	 1	    1.00000	    0.00000	 46.0	 4	    1.05000	    0.95000;
	160	 1	 131.274	 -62.291	 0.0	 -59.884	 1	    1.00000	    0.00000	 230.0	 4	    1.05000	    0.95000;
	161	 1	 16.515	 6.06	 0.0	 0.0	 1	    1.00000	    0.00000	 46.0	 4	    1.05000	    0.95000;
	162	 1	 20.678	 4.756	 0.0	 0.0	 1	    1.00000	    0.00000	 115.0	 4	    1.05000	    0.95000;
	163	 1	 5.884	 1.064	 0.0	 0.0	 1	    1.00000	    0.00000	 13.8	 4	    1.05000	    0.95000;
	164	 1	 7.901	 -1.194	 0.0	 0.0	 1	    1.00000	    0.00000	 115.0	 4	    1.05000	    0.95000;
	165	 1	 31.05	 2.535	 0.0	 0.0	 1	    1.00000	    0.00000	 115.0	 4	    1.05000	    0.95000;
	166	 1	 13.351	 0.185	 0.0	 0.0	 1	    1.00000	    0.00000	 115.0	 4	    1.05000	    0.95000;
	167	 1	 0.0	 0.0	 0.0	 0.0	 1	    1.00000	    0.00000	 230.0	 4	    1.05000	    0.95000;
	168	 1	 6.541	 -1.554	 0.0	 0.0	 1	    1.00000	    0.00000	 115.0	 4	    1.05000	    0.95000;
	169	 1	 0.0	 0.0	 0.0	 0.0	 1	    1.00000	    0.00000	 115.0	 4	    1.05000	    0.95000;
	170	 1	 8.91	 0.879	 0.0	 0.0	 1	    1.00000	    0.00000	 115.0	 4	    1.05000	    0.95000;
	171	 1	 0.0	 0.0	 0.0	 0.0	 1	    1.00000	    0.00000	 230.0	 4	    1.05000	    0.95000;
	172	 1	 0.0	 0.0	 0.0	 0.0	 1	    1.00000	    0.00000	 115.0	 4	    1.05000	    0.95000;
	173	 1	 21.65	 0.749	 0.0	 0.0	 1	    1.00000	    0.00000	 46.0	 4	    1.05000	    0.95000;
	174	 1	 -0.379	 -1.277	 0.0	 0.0	 1	    1.00000	    0.00000	 115.0	 4	    1.05000	    0.95000;
	175	 1	 0.0	 0.0	 0.0	 0.0	 1	    1.00000	    0.00000	 115.0	 4	    1.05000	    0.95000;
	176	 1	 23.481	 -5.293	 0.0	 0.0	 1	    1.00000	    0.00000	 115.0	 4	    1.05000	    0.95000;
	177	 1	 143.394	 -29.945	 0.0	 0.0	 1	    1.00000	    0.00000	 230.0	 4	    1.05000	    0.95000;
	178	 1	 0.0	 0.0	 0.0	 0.0	 1	    1.00000	    0.00000	 34.5	 4	    1.05000	    0.95000;
	179	 1	 0.0	 0.0	 0.0	 0.0	 1	    1.00000	    0.00000	 13.8	 4	    1.05000	    0.95000;
	180	 1	 48.003	 -21.647	 0.0	 0.0	 1	    1.00000	    0.00000	 115.0	 4	    1.05000	    0.95000;
	181	 1	 8.068	 -0.648	 0.0	 0.0	 1	    1.00000	    0.00000	 46.0	 4	    1.05000	    0.95000;
	182	 1	 0.0	 0.0	 0.0	 0.0	 1	    1.00000	    0.00000	 34.5	 4	    1.05000	    0.95000;
	183	 1	 5.607	 -1.434	 0.0	 0.0	 1	    1.00000	    0.00000	 115.0	 4	    1.05000	    0.95000;
	184	 1	 10.908	 2.156	 0.0	 0.0	 1	    1.00000	    0.00000	 46.0	 4	    1.05000	    0.95000;
	185	 1	 0.0	 0.0	 0.0	 0.0	 1	    1.00000	    0.00000	 115.0	 4	    1.05000	    0.95000;
	186	 1	 0.0	 0.0	 0.0	 0.0	 1	    1.00000	    0.00000	 230.0	 4	    1.05000	    0.95000;
	187	 1	 6.005	 -1.425	 0.0	 0.0	 1	    1.00000	    0.00000	 115.0	 4	    1.05000	    0.95000;
	188	 1	 5.273	 -4.154	 0.0	 0.0	 1	    1.00000	    0.00000	 115.0	 4	    1.05000	    0.95000;
	189	 1	 0.0	 0.0	 0.0	 0.0	 1	    1.00000	    0.00000	 230.0	 4	    1.05000	    0.95000;
	190	 1	 7.725	 0.435	 0.0	 0.0	 1	    1.00000	    0.00000	 46.0	 4	    1.05000	    0.95000;
	191	 1	 -0.481	 0.546	 0.0	 0.0	 1	    1.00000	    0.00000	 22.0	 4	    1.05000	    0.95000;
	192	 1	 0.0	 0.0	 0.0	 9.19999579897	 1	    1.00000	    0.00000	 34.5	 4	    1.05000	    0.95000;
	193	 1	 87.811	 -13.624	 0.0	 0.0	 1	    1.00000	    0.00000	 115.0	 4	    1.05000	    0.95000;
	194	 1	 0.0	 0.0	 0.0	 0.0	 1	    1.00000	    0.00000	 46.0	 4	    1.05000	    0.95000;
	195	 1	 7.975	 -2.341	 0.0	 0.0	 1	    1.00000	    0.00000	 46.0	 4	    1.05000	    0.95000;
	196	 1	 0.0	 0.0	 0.0	 0.0	 1	    1.00000	    0.00000	 34.5	 4	    1.05000	    0.95000;
	197	 1	 0.0	 0.0	 0.0	 0.0	 1	    1.00000	    0.00000	 46.0	 4	    1.05000	    0.95000;
	198	 1	 0.0	 0.0	 0.0	 0.0	 1	    1.00000	    0.00000	 115.0	 4	    1.05000	    0.95000;
	199	 1	 0.0	 0.0	 0.0	 0.0	 1	    1.00000	    0.00000	 34.5	 4	    1.05000	    0.95000;
	200	 1	 10.936	 -0.583	 0.0	 0.0	 1	    1.00000	    0.00000	 46.0	 4	    1.05000	    0.95000;
...
];

%% generator data
%	bus	Pg	Qg	Qmax	Qmin	Vg	mBase	status	Pmax	Pmin
mpc.gen = [
	9	 21.5	 0.0	 500.0	 -500.0	 1.0	 100.0	 1	 40.0	 3.0;
	21	 0.0	 0.0	 532.035	 -532.035	 1.0	 100.0	 0	 1764.706	 88.235;
	23	 187.6395	 0.0	 33.333	 -33.333	 1.0	 100.0	 1	 357.409	 17.87;
	25	 1089.9655	 0.0	 400.0	 -400.0	 1.0	 100.0	 1	 2076.125	 103.806;
	27	 764.2285	 0.0	 550.0	 -550.0	 1.0	 100.0	 1	 1500.0	 28.457;
	42	 755.9805	 0.0	 550.0	 -550.0	 1.0	 100.0	 1	 1500.0	 11.961;
	46	 775.9245	 0.0	 550.0	 -550.0	 1.0	 100.0	 1	 1500.0	 51.849;
	51	 754.122	 0.0	 550.0	 -550.0	 1.0	 100.0	 1	 1500.0	 8.244;
	55	 0.0	 0.0	 131.303	 -131.303	 1.0	 35.0	 0	 422.059	 5.7;
	60	 22.303	 0.0	 9.352	 -9.352	 1.0	 100.0	 1	 41.606	 3.0;
	70	 23.34	 0.0	 9.296	 -9.296	 1.0	 100.0	 1	 41.36	 5.32;
	73	 770.3845	 0.0	 550.0	 -550.0	 1.0	 100.0	 1	 1500.0	 40.769;
	75	 1005.0	 0.0	 425.895	 -425.895	 1.0	 1020.0	 1	 2000.0	 10.0;
	75	 1005.0	 0.0	 426.656	 -426.656	 1.0	 1020.0	 1	 2000.0	 10.0;
	78	 751.5	 0.0	 550.0	 -550.0	 1.0	 100.0	 1	 1500.0	 3.0;
	96	 753.085	 0.0	 550.0	 -550.0	 1.0	 100.0	 1	 1500.0	 6.17;
	112	 21.5	 0.0	 3.66	 -3.66	 1.0	 100.0	 1	 40.0	 3.0;
	116	 115.586	 0.0	 51.286	 -51.286	 1.0	 100.0	 1	 228.172	 3.0;
	119	 0.0	 0.0	 284.382	 -284.382	 1.0	 686.0	 0	 914.118	 45.706;
	129	 626.6275	 0.0	 281.019	 -281.019	 1.0	 686.0	 1	 1250.255	 3.0;
	141	 787.5	 0.0	 550.0	 -550.0	 1.0	 100.0	 1	 1500.0	 75.0;
	147	 21.5	 0.0	 9.607	 -9.607	 1.0	 100.0	 1	 40.0	 3.0;
	151	 0.0	 0.0	 120.323	 -120.323	 1.0	 100.0	 0	 386.765	 19.338;
	152	 221.2325	 0.0	 135.878	 -135.878	 1.0	 35.0	 1	 436.765	 5.7;
	154	 257.5555	 0.0	 135.42	 -135.42	 1.0	 100.0	 1	 512.111	 3.0;
	160	 0.0	 0.0	 16.813	 -16.813	 1.0	 40.6	 0	 54.044	 3.0;
	163	 0.0	 0.0	 32.357	 -32.357	 1.0	 60.67	 0	 104.007	 9.5;
	178	 0.0	 0.0	 8.321	 -8.321	 1.0	 52.5	 0	 26.746	 3.0;
	179	 0.0	 0.0	 56.044	 -56.044	 1.0	 102.0	 0	 180.147	 38.0;
	182	 0.0	 0.0	 10.426	 -10.426	 1.0	 38.65	 0	 33.515	 7.79;
	192	 0.0	 0.0	 134.962	 -134.962	 1.0	 100.0	 0	 433.824	 21.691;
	196	 0.0	 0.0	 11.929	 -11.929	 1.0	 38.65	 0	 38.346	 3.0;
	199	 0.0	 0.0	 14.745	 -14.745	 1.0	 126.32	 0	 47.397	 19.66;
	199	 0.0	 0.0	 24.019	 -24.019	 1.0	 100.0	 0	 77.206	 3.86;
	199	 0.0	 0.0	 9.607	 -9.607	 1.0	 100.0	 0	 30.882	 3.0;
	211	 21.5	 0.0	 11.209	 -11.209	 1.0	 100.0	 1	 40.0	 3.0;
	217	 0.0	 0.0	 297.832	 -297.832	 1.0	 733.0	 0	 957.353	 304.0;
	224	 0.0	 0.0	 431.367	 -431.367	 1.0	 650.0	 0	 1386.585	 427.4;
	237	 0.0	 0.0	 10.34	 -10.34	 1.0	 100.0	 0	 33.235	 7.6;
	243	 754.4865	 0.0	 550.0	 -550.0	 1.0	 100.0	 1	 1500.0	 8.973;
	252	 0.0	 0.0	 69.06	 -69.06	 1.0	 250.0	 0	 221.985	 11.099;
	257	 0.0	 0.0	 24.979	 -24.979	 1.0	 25.98	 0	 80.294	 20.65;
	263	 42.917	 0.0	 21.617	 -21.617	 1.0	 43.45	 1	 81.747	 4.087;
	267	 751.5	 0.0	 550.0	 -550.0	 1.0	 100.0	 1	 1500.0	 3.0;
	269	 769.343	 0.0	 550.0	 -550.0	 1.0	 100.0	 1	 1500.0	 38.686;
	274	 37.799	 0.0	 18.735	 -18.735	 1.0	 44.0	 1	 70.848	 4.75;
	286	 787.5	 0.0	 550.0	 -550.0	 1.0	 100.0	 1	 1500.0	 75.0;
	293	 61.911	 0.0	 26.764	 -26.764	 1.0	 73.0	 1	 119.072	 4.75;
	302	 0.0	 0.0	 120.323	 -120.323	 1.0	 6.25	 0	 386.765	 5.142;
	305	 289.589	 0.0	 123.982	 -123.982	 1.0	 100.0	 1	 551.598	 27.58;
	314	 0.0	 0.0	 307.92	 -307.92	 1.0	 370.6	 0	 989.779	 251.2;
	322	 768.5275	 0.0	 550.0	 -550.0	 1.0	 100.0	 1	 1500.0	 37.055;
	332	 93.0805	 0.0	 48.037	 -48.037	 1.0	 100.0	 1	 181.661	 4.5;
	333	 0.0	 0.0	 7.206	 -7.206	 1.0	 100.0	 0	 23.162	 3.0;
	336	 0.0	 0.0	 86.467	 -86.467	 1.0	 234.0	 0	 326.99	 94.05;
	339	 262.526	 0.0	 117.578	 -117.578	 1.0	 100.0	 1	 523.102	 1.95;
	350	 0.0	 0.0	 66.292	 -66.292	 1.0	 43.45	 0	 213.088	 25.933;
	351	 787.5	 0.0	 550.0	 -550.0	 1.0	 100.0	 1	 1500.0	 75.0;
	352	 0.0	 0.0	 215.089	 -215.089	 1.0	 100.0	 0	 691.382	 34.569;
	353	 0.0	 0.0	 101.107	 -101.107	 1.0	 213.4	 0	 325.0	 94.05;
	356	 207.3825	 0.0	 128.1	 -128.1	 1.0	 100.0	 1	 411.765	 3.0;
	358	 275.3225	 0.0	 123.525	 -123.525	 1.0	 100.0	 1	 549.562	 1.083;
	359	 0.0	 0.0	 243.07	 -243.07	 1.0	 595.0	 0	 781.324	 124.8;
	368	 60.6965	 0.0	 25.986	 -25.986	 1.0	 71.18	 1	 115.612	 5.781;
	371	 238.259	 0.0	 122.152	 -122.152	 1.0	 64.7	 1	 461.938	 14.58;
	371	 0.0	 0.0	 118.95	 -118.95	 1.0	 64.7	 0	 382.353	 19.118;
	371	 0.0	 0.0	 19.627	 -19.627	 1.0	 49.4	 0	 63.088	 13.46;
	372	 145.919	 0.0	 86.467	 -86.467	 1.0	 213.4	 1	 277.941	 13.897;
	375	 0.0	 0.0	 21.617	 -21.617	 1.0	 43.45	 0	 69.485	 4.75;
	379	 626.0025	 0.0	 253.158	 -253.158	 1.0	 382.6	 1	 1126.297	 125.708;
	382	 0.0	 0.0	 86.467	 -86.467	 1.0	 234.0	 0	 277.941	 94.05;
	388	 764.3025	 0.0	 550.0	 -550.0	 1.0	 100.0	 1	 1500.0	 28.605;
	392	 260.528	 0.0	 116.663	 -116.663	 1.0	 100.0	 1	 519.031	 2.025;
	398	 278.3165	 0.0	 124.44	 -124.44	 1.0	 19.0	 1	 553.633	 3.0;
	401	 0.0	 0.0	 312.244	 -312.244	 1.0	 369.0	 0	 1003.676	 127.708;
	412	 762.9485	 0.0	 550.0	 -550.0	 1.0	 100.0	 1	 1500.0	 25.897;
	414	 759.277	 0.0	 550.0	 -550.0	 1.0	 100.0	 1	 1500.0	 18.554;
	421	 21.5	 0.0	 605.021	 -605.021	 1.0	 100.0	 1	 40.0	 3.0;
	431	 751.5	 0.0	 550.0	 -550.0	 1.0	 100.0	 1	 1500.0	 3.0;
	433	 751.5	 0.0	 550.0	 -550.0	 1.0	 100.0	 1	 1500.0	 3.0;
	442	 754.6815	 0.0	 550.0	 -550.0	 1.0	 100.0	 1	 1500.0	 9.363;
	456	 787.5	 0.0	 550.0	 -550.0	 1.0	 100.0	 1	 1500.0	 75.0;
	468	 77.4955	 0.0	 28.431	 -28.431	 1.0	 58.71	 1	 126.491	 28.5;
	474	 0.0	 0.0	 133.133	 -133.133	 1.0	 52.94	 0	 427.941	 21.397;
	474	 0.0	 0.0	 19.215	 -19.215	 1.0	 52.94	 0	 61.765	 14.25;
	506	 0.0	 0.0	 119.408	 -119.408	 1.0	 250.0	 0	 383.824	 19.191;
	510	 751.5	 0.0	 550.0	 -550.0	 1.0	 100.0	 1	 1500.0	 3.0;
	543	 787.5	 0.0	 550.0	 -550.0	 1.0	 100.0	 1	 1500.0	 75.0;
	563	 0.0	 0.0	 384.3	 -384.3	 1.005845	 100.0	 0	 1235.294	 61.765;
	566	 699.078	 0.0	 368.928	 -368.928	 1.0	 841.0	 1	 1395.156	 3.0;
	569	 752.2955	 0.0	 550.0	 -550.0	 1.0	 100.0	 1	 1500.0	 4.591;
	579	 271.5295	 0.0	 116.251	 -116.251	 1.0	 100.0	 1	 517.199	 25.86;
	582	 714.239	 0.0	 320.404	 -320.404	 1.0	 659.0	 1	 1425.478	 3.0;
	584	 21.5	 0.0	 24.181	 -24.181	 1.0	 100.0	 1	 40.0	 3.0;
	588	 0.0	 0.0	 22.578	 -22.578	 1.007635	 100.0	 0	 72.574	 3.629;
	609	 751.5	 0.0	 550.0	 -550.0	 1.0	 100.0	 1	 1500.0	 3.0;
	614	 603.118	 0.0	 270.451	 -270.451	 1.0	 100.0	 1	 1203.236	 3.0;
	626	 0.0	 0.0	 319.141	 -319.141	 1.0	 659.0	 0	 1025.846	 51.292;
	629	 0.0	 0.0	 174.857	 -174.857	 1.00898	 100.0	 0	 562.059	 28.103;
	630	 0.0	 0.0	 29.303	 -29.303	 1.0	 55.0	 0	 94.191	 4.71;
	630	 0.0	 0.0	 26.421	 -26.421	 1.0	 55.0	 0	 84.926	 4.246;
	630	 60.46	 0.0	 26.421	 -26.421	 1.0	 55.0	 1	 117.545	 3.375;
	630	 69.89	 0.0	 30.744	 -30.744	 1.0	 55.0	 1	 136.78	 3.0;
	630	 0.0	 0.0	 25.94	 -25.94	 1.0	 55.0	 0	 83.382	 4.169;
	630	 0.0	 0.0	 25.94	 -25.94	 1.0	 55.0	 0	 83.382	 4.169;
	634	 0.0	 0.0	 7.206	 -7.206	 1.0	 19.0	 0	 23.162	 3.0;
	638	 686.678	 0.0	 293.99	 -293.99	 1.0	 718.0	 1	 1307.958	 65.398;
	652	 0.0	 0.0	 22.578	 -22.578	 1.0	 55.6	 0	 72.574	 3.629;
	652	 0.0	 0.0	 22.578	 -22.578	 1.0	 55.6	 0	 72.574	 3.629;
	652	 39.331	 0.0	 23.538	 -23.538	 1.0	 55.6	 1	 75.662	 3.0;
	652	 309.8925	 0.0	 132.675	 -132.675	 1.0	 55.6	 1	 590.271	 29.514;
	652	 0.0	 0.0	 134.048	 -134.048	 1.0	 195.6	 0	 430.882	 21.544;
	652	 17.3895	 0.0	 9.887	 -9.887	 1.0	 195.6	 1	 31.779	 3.0;
	664	 755.802	 0.0	 550.0	 -550.0	 1.0	 100.0	 1	 1500.0	 11.604;
	669	 462.419	 0.0	 286.784	 -286.784	 1.0	 704.0	 1	 921.838	 3.0;
	682	 21.5	 0.0	 3.66	 -3.66	 1.0181	 100.0	 1	 40.0	 3.0;
	686	 0.0	 0.0	 364.605	 -364.605	 1.0	 841.0	 0	 1171.985	 58.599;
	696	 761.144	 0.0	 550.0	 -550.0	 1.0	 100.0	 1	 1500.0	 22.288;
	698	 21.5	 0.0	 3.66	 -3.66	 1.0	 100.0	 1	 40.0	 3.0;
	702	 714.1105	 0.0	 443.386	 -443.386	 1.0	 1043.0	 1	 1425.221	 3.0;
	715	 0.0	 0.0	 129.015	 -129.015	 1.0	 100.0	 0	 414.706	 20.735;
	719	 0.0	 0.0	 30.744	 -30.744	 1.0	 47.62	 0	 98.824	 3.0;
	722	 0.0	 0.0	 31.224	 -31.224	 1.0	 100.0	 0	 100.368	 5.018;
	728	 0.0	 0.0	 122.015	 -122.015	 1.0	 194.91	 0	 392.206	 19.61;
	730	 220.3095	 0.0	 110.967	 -110.967	 1.0	 194.45	 1	 419.637	 20.982;
	732	 248.905	 0.0	 111.218	 -111.218	 1.0	 196.98	 1	 494.81	 3.0;
	735	 0.0	 0.0	 30.264	 -30.264	 1.0	 100.0	 0	 97.279	 4.864;
	739	 0.0	 0.0	 12.009	 -12.009	 1.0	 100.0	 0	 38.603	 3.0;
	742	 0.0	 0.0	 48.037	 -48.037	 1.0	 120.0	 0	 154.412	 2.85;
	748	 0.0	 0.0	 122.015	 -122.015	 1.0	 195.49	 0	 392.206	 19.61;
	765	 0.0	 0.0	 41.793	 -41.793	 1.008385	 100.0	 0	 134.338	 6.717;
	770	 0.0	 0.0	 17.808	 -17.808	 1.0	 100.0	 0	 57.243	 3.0;
	770	 0.0	 0.0	 15.172	 -15.172	 1.0	 100.0	 0	 48.768	 3.0;
	774	 755.376	 0.0	 550.0	 -550.0	 1.0	 100.0	 1	 1500.0	 10.752;
	775	 180.5165	 0.0	 111.384	 -111.384	 1.0	 194.87	 1	 358.033	 3.0;
	783	 211.4805	 0.0	 111.052	 -111.052	 0.994275	 194.6	 1	 419.961	 3.0;
	788	 751.5	 0.0	 550.0	 -550.0	 1.0	 100.0	 1	 1500.0	 3.0;
	789	 751.5	 0.0	 550.0	 -550.0	 1.0	 100.0	 1	 1500.0	 3.0;
	791	 248.536	 0.0	 111.052	 -111.052	 1.0	 194.3	 1	 494.072	 3.0;
	792	 913.8605	 0.0	 550.0	 -550.0	 1.0	 100.0	 1	 1740.687	 87.034;
	800	 52.693	 0.0	 31.224	 -31.224	 1.0	 100.0	 1	 100.368	 5.018;
	801	 94.147	 0.0	 57.645	 -57.645	 1.0	 100.0	 1	 185.294	 3.0;
	809	 772.1335	 0.0	 550.0	 -550.0	 1.0	 100.0	 1	 1500.0	 44.267;
	816	 0.0	 0.0	 127.643	 -127.643	 1.0	 128.0	 0	 410.294	 20.515;
	816	 110.8965	 0.0	 48.998	 -48.998	 1.0	 128.0	 1	 217.993	 3.8;
	816	 0.0	 0.0	 123.982	 -123.982	 1.0	 128.0	 0	 398.529	 19.926;
	816	 110.8965	 0.0	 48.998	 -48.998	 1.0	 128.0	 1	 217.993	 3.8;
	819	 0.0	 0.0	 638.226	 -638.226	 1.0079	 100.0	 0	 2219.323	 110.966;
	820	 182.272	 0.0	 112.476	 -112.476	 1.0	 196.78	 1	 361.544	 3.0;
	821	 0.0	 0.0	 111.132	 -111.132	 1.0	 196.83	 0	 357.224	 17.861;
	825	 272.923	 0.0	 122.015	 -122.015	 0.994275	 195.2	 1	 542.846	 3.0;
	829	 194.491	 0.0	 118.492	 -118.492	 1.0	 100.0	 1	 380.882	 8.1;
	836	 0.0	 0.0	 116.663	 -116.663	 1.0	 100.0	 0	 375.0	 18.75;
	839	 26.114	 0.0	 15.315	 -15.315	 1.0	 100.0	 1	 49.228	 3.0;
	839	 0.0	 0.0	 15.338	 -15.338	 1.0	 100.0	 0	 49.301	 3.0;
	840	 210.529	 0.0	 110.549	 -110.549	 1.0	 193.42	 1	 418.058	 3.0;
	842	 109.428	 0.0	 48.518	 -48.518	 1.0	 100.0	 1	 215.856	 3.0;
	850	 772.1335	 0.0	 550.0	 -550.0	 1.0	 100.0	 1	 1500.0	 44.267;
	859	 0.0	 0.0	 31.224	 -31.224	 1.0	 100.0	 0	 100.368	 5.018;
	862	 250.0245	 0.0	 111.721	 -111.721	 0.994275	 195.77	 1	 497.049	 3.0;
	863	 0.0	 0.0	 15.652	 -15.652	 1.0	 100.0	 0	 50.312	 3.0;
	864	 0.0	 0.0	 15.269	 -15.269	 1.0	 100.0	 0	 49.081	 3.0;
	869	 242.0965	 0.0	 107.124	 -107.124	 1.0	 100.0	 1	 476.593	 7.6;
	873	 0.0	 0.0	 591.096	 -591.096	 1.0	 716.2	 0	 1900.019	 524.545;
	880	 216.416	 0.0	 133.59	 -133.59	 1.0	 100.0	 1	 429.412	 3.42;
	906	 0.0	 0.0	 305.038	 -305.038	 1.0	 716.2	 0	 980.515	 209.0;
	926	 787.5	 0.0	 550.0	 -550.0	 1.0	 100.0	 1	 1500.0	 75.0;
	938	 0.0	 0.0	 14.411	 -14.411	 1.0	 37.5	 0	 46.324	 17.033;
	938	 0.0	 0.0	 14.411	 -14.411	 1.0	 37.5	 0	 46.324	 16.7;
	938	 0.0	 0.0	 14.411	 -14.411	 1.0	 36.0	 0	 46.324	 8.633;
	961	 766.1375	 0.0	 550.0	 -550.0	 1.0	 100.0	 1	 1500.0	 32.275;
	965	 787.5	 0.0	 550.0	 -550.0	 1.0	 100.0	 1	 1500.0	 75.0;
	987	 56.2205	 0.0	 23.779	 -23.779	 1.0	 60.0	 1	 105.791	 6.65;
	992	 0.0	 0.0	 31.032	 -31.032	 1.0	 64.1	 0	 99.75	 4.988;
	992	 0.0	 0.0	 128.1	 -128.1	 1.0	 1.5	 0	 411.765	 20.588;
	992	 0.0	 0.0	 116.663	 -116.663	 1.0	 100.0	 0	 375.0	 18.75;
	992	 289.979	 0.0	 129.93	 -129.93	 1.0	 13.0	 1	 578.058	 1.9;
	996	 755.136	 0.0	 550.0	 -550.0	 1.0	 100.0	 1	 1500.0	 10.272;
	1007	 0.0	 0.0	 0.091	 -0.091	 1.0	 100.0	 0	 0.294	 0.1;
	1048	 0.0	 0.0	 114.375	 -114.375	 1.0	 100.0	 0	 367.647	 1.267;
	1056	 210.161	 0.0	 81.664	 -81.664	 1.0	 246.0	 1	 363.322	 57.0;
	1061	 766.934	 0.0	 550.0	 -550.0	 1.0	 100.0	 1	 1500.0	 33.868;
	1065	 0.0	 0.0	 0.091	 -0.091	 1.0	 100.0	 0	 0.294	 0.1;
	1077	 754.592	 0.0	 550.0	 -550.0	 1.0	 100.0	 1	 1500.0	 9.184;
	1086	 0.0	 0.0	 0.091	 -0.091	 1.0	 100.0	 0	 0.294	 0.1;
	1092	 0.0	 0.0	 126.27	 -126.27	 1.0	 225.0	 0	 405.882	 3.6;
	1092	 0.0	 0.0	 59.534	 -59.534	 1.0	 154.0	 0	 191.368	 50.18;
	1139	 765.662	 0.0	 550.0	 -550.0	 1.0	 100.0	 1	 1500.0	 31.324;
	1140	 757.9685	 0.0	 550.0	 -550.0	 1.0	 100.0	 1	 1500.0	 15.937;
	1142	 0.0	 0.0	 122.068	 -122.068	 1.0	 100.0	 0	 392.376	 19.619;
	1143	 273.041	 0.0	 122.068	 -122.068	 1.0	 100.0	 1	 543.082	 3.0;
	1144	 197.688	 0.0	 122.068	 -122.068	 1.0	 100.0	 1	 392.376	 3.0;
	1145	 273.0325	 0.0	 122.065	 -122.065	 1.0	 100.0	 1	 543.065	 3.0;
	1146	 777.7565	 0.0	 550.0	 -550.0	 1.0	 100.0	 1	 1500.0	 55.513;
	1173	 17.987	 0.0	 7.411	 -7.411	 1.0	 100.0	 1	 32.974	 3.0;
	1175	 0.0	 0.0	 11.58	 -11.58	 1.00769	 100.0	 0	 37.224	 3.0;
	1181	 32.0575	 0.0	 13.725	 -13.725	 1.0	 100.0	 1	 61.062	 3.053;
	1183	 0.0	 0.0	 13.725	 -13.725	 1.0	 100.0	 0	 44.118	 3.0;
	1185	 0.0	 0.0	 21.445	 -21.445	 1.0	 100.0	 0	 68.934	 3.447;
	1187	 0.0	 0.0	 21.445	 -21.445	 1.0	 100.0	 0	 68.934	 3.447;
...
];

%% generator cost data
%	2	startup	shutdown	n	c(n-1)	...	c0
mpc.gencost = [
	2	 0.0	 0.0	 3	   0.262100	  26.580000	 238.400000;
2	0.0	0.0	3	0.2	0.796100	9097.000000;
2	0.0	0.0	3	0.2	1.094000	1106.000000;
2	0.0	0.0	3	0.2	0.623000	7857.000000;
2	0.0	0.0	3	0.2	0.559300	2277.000000;
2	0.0	0.0	3	0.2	0.553100	980.000000;
2	0.0	0.0	3	0.2	0.568300	4178.000000;
2	0.0	0.0	3	0.2	0.193400	469.500000;
2	0.0	0.0	3	0.2	0.801600	362.700000;
2	0.0	0.0	3	0.2	21.270000	487.600000;
2	0.0	0.0	3	0.2	25.860000	285.200000;
2	0.0	0.0	3	0.2	0.638700	3261.000000;
2	0.0	0.0	3	0.2	0.468300	823.900000;
2	0.0	0.0	3	0.2	0.341900	790.500000;
2	0.0	0.0	3	0.2	0.813500	286.500000;
2	0.0	0.0	3	0.2	0.538100	523.800000;
2	0.0	0.0	3	0.2	23.350000	96.280000;
2	0.0	0.0	3	0.2	14.210000	275.500000;
2	0.0	0.0	3	0.2	0.947400	3709.000000;
2	0.0	0.0	3	0.2	0.758700	253.700000;
	2	 0.0	 0.0	 3	   0.000179	   0.399700	 5171.000000;
	2	 0.0	 0.0	 3	   0.389100	   8.650000	 188.600000;
2	0.0	0.0	3	0.2	1.023000	1395.000000;
2	0.0	0.0	3	0.2	0.326900	778.700000;
2	0.0	0.0	3	0.2	0.385800	287.400000;
2	0.0	0.0	3	0.2	3.847000	320.400000;
	2	 0.0	 0.0	 3	   0.074550	  56.160000	 483.400000;
2	0.0	0.0	3	0.2	22.920000	181.600000;
	2	 0.0	 0.0	 3	   0.033110	  35.740000	 2501.000000;
2	0.0	0.0	3	0.2	39.130000	643.000000;
2	0.0	0.0	3	0.2	1.601000	1521.000000;
2	0.0	0.0	3	0.2	23.300000	196.900000;
2	0.0	0.0	3	0.2	21.000000	512.400000;
2	0.0	0.0	3	0.2	13.870000	284.600000;
2	0.0	0.0	3	0.2	33.600000	153.200000;
	2	 0.0	 0.0	 3	   0.957500	  71.510000	 -78.540000;
2	0.0	0.0	3	0.2	0.215700	20360.000000;
2	0.0	0.0	3	0.2	0.854300	46140.000000;
2	0.0	0.0	3	0.2	36.050000	647.400000;
2	0.0	0.0	3	0.2	0.646700	884.600000;
	2	 0.0	 0.0	 3	   0.015100	  25.440000	 862.100000;
2	0.0	0.0	3	0.2	28.970000	1883.000000;
2	0.0	0.0	3	0.2	3.897000	177.100000;
2	0.0	0.0	3	0.2	0.625800	240.100000;
2	0.0	0.0	3	0.2	0.677600	2819.000000;
2	0.0	0.0	3	0.2	14.950000	306.600000;
2	0.0	0.0	3	0.2	0.339200	7160.000000;
	2	 0.0	 0.0	 3	   0.047860	  41.420000	 263.000000;
2	0.0	0.0	3	0.2	0.523800	389.300000;
2	0.0	0.0	3	0.2	2.348000	1511.000000;
2	0.0	0.0	3	0.2	0.869800	20290.000000;
2	0.0	0.0	3	0.2	0.374700	1650.000000;
	2	 0.0	 0.0	 3	   0.028090	  24.710000	 375.000000;
	2	 0.0	 0.0	 3	   1.340000	  13.210000	 155.100000;
2	0.0	0.0	3	0.2	1.492000	5589.000000;
2	0.0	0.0	3	0.2	1.945000	182.100000;
	2	 0.0	 0.0	 3	   0.019150	  28.050000	 1961.000000;
2	0.0	0.0	3	0.2	1.295000	4512.000000;
2	0.0	0.0	3	0.2	2.809000	2040.000000;
2	0.0	0.0	3	0.2	3.562000	7380.000000;
2	0.0	0.0	3	0.2	0.976000	202.200000;
2	0.0	0.0	3	0.2	0.458200	69.370000;
2	0.0	0.0	3	0.2	9.112000	12490.000000;
	2	 0.0	 0.0	 3	   0.051830	  42.990000	 300.300000;
2	0.0	0.0	3	0.2	0.315000	1995.000000;
2	0.0	0.0	3	0.2	1.424000	1307.000000;
2	0.0	0.0	3	0.2	3.298000	886.000000;
	2	 0.0	 0.0	 3	   0.009644	  20.310000	 1160.000000;
2	0.0	0.0	3	0.2	58.240000	-138.300000;
2	0.0	0.0	3	0.2	0.163600	6638.000000;
	2	 0.0	 0.0	 3	   0.019820	  25.830000	 7007.000000;
	2	 0.0	 0.0	 3	   0.000264	   0.457600	 1764.000000;
2	0.0	0.0	3	0.2	0.486100	124.400000;
	2	 0.0	 0.0	 3	   0.000842	   2.001000	 266.900000;
2	0.0	0.0	3	0.2	0.519800	8762.000000;
	2	 0.0	 0.0	 3	   0.000272	   0.227400	 1857.000000;
	2	 0.0	 0.0	 3	   0.000222	   0.299900	 1299.000000;
	2	 0.0	 0.0	 3	   0.347000	   7.710000	 205.100000;
2	0.0	0.0	3	0.2	0.173800	214.400000;
2	0.0	0.0	3	0.2	0.173800	178.400000;
2	0.0	0.0	3	0.2	0.617900	774.600000;
2	0.0	0.0	3	0.2	0.737200	4505.000000;
	2	 0.0	 0.0	 3	   0.069370	  51.580000	 1435.000000;
2	0.0	0.0	3	0.2	0.772000	1271.000000;
2	0.0	0.0	3	0.2	5.289000	823.000000;
2	0.0	0.0	3	0.2	0.826200	1509.000000;
2	0.0	0.0	3	0.2	0.587500	240.600000;
2	0.0	0.0	3	0.2	0.603500	5997.000000;
2	0.0	0.0	3	0.2	1.138000	6222.000000;
2	0.0	0.0	3	0.2	0.143600	214.200000;
2	0.0	0.0	3	0.2	0.122900	341.100000;
2	0.0	0.0	3	0.2	0.450200	736.400000;
2	0.0	0.0	3	0.2	0.220900	200.400000;
2	0.0	0.0	3	0.2	14.660000	175.600000;
	2	 0.0	 0.0	 3	   0.047420	  16.140000	 490.800000;
2	0.0	0.0	3	0.2	0.908200	430.000000;
	2	 0.0	 0.0	 3	   0.000349	   0.308100	 224.100000;
2	0.0	0.0	3	0.2	0.271300	3853.000000;
2	0.0	0.0	3	0.2	0.676700	1025.000000;
2	0.0	0.0	3	0.2	17.960000	325.200000;
2	0.0	0.0	3	0.2	13.440000	357.100000;
	2	 0.0	 0.0	 3	   0.051220	  47.300000	 227.300000;
	2	 0.0	 0.0	 3	   0.037370	  40.430000	 192.000000;
2	0.0	0.0	3	0.2	20.170000	494.500000;
2	0.0	0.0	3	0.2	20.170000	512.500000;
2	0.0	0.0	3	0.2	29.980000	128.300000;
2	0.0	0.0	3	0.2	0.416300	4419.000000;
2	0.0	0.0	3	0.2	5.721000	148.200000;
2	0.0	0.0	3	0.2	6.931000	147.600000;
2	0.0	0.0	3	0.2	10.960000	207.400000;
2	0.0	0.0	3	0.2	1.933000	4647.000000;
2	0.0	0.0	3	0.2	1.080000	1548.000000;
2	0.0	0.0	3	0.2	11.630000	88.510000;
2	0.0	0.0	3	0.2	0.727400	1080.000000;
2	0.0	0.0	3	0.2	0.447900	229.000000;
2	0.0	0.0	3	0.2	31.270000	209.700000;
2	0.0	0.0	3	0.2	0.693600	3045.000000;
2	0.0	0.0	3	0.2	0.406000	689.900000;
2	0.0	0.0	3	0.2	8.206000	143.400000;
2	0.0	0.0	3	0.2	0.576200	328.900000;
2	0.0	0.0	3	0.2	1.151000	1465.000000;
2	0.0	0.0	3	0.2	11.730000	278.500000;
	2	 0.0	 0.0	 3	   0.073260	  56.330000	  63.520000;
2	0.0	0.0	3	0.2	0.802200	1156.000000;
2	0.0	0.0	3	0.2	0.787200	1276.000000;
2	0.0	0.0	3	0.2	0.755000	237.700000;
2	0.0	0.0	3	0.2	10.420000	541.200000;
2	0.0	0.0	3	0.2	18.600000	208.300000;
	2	 0.0	 0.0	 3	   0.029160	  35.710000	 238.500000;
2	0.0	0.0	3	0.2	0.164600	1296.000000;
	2	 0.0	 0.0	 3	   0.041050	  42.060000	 432.200000;
2	0.0	0.0	3	0.2	4.383000	138.900000;
2	0.0	0.0	3	0.2	13.260000	92.330000;
2	0.0	0.0	3	0.2	1.187000	1390.000000;
2	0.0	0.0	3	0.2	1.754000	276.500000;
2	0.0	0.0	3	0.2	0.854700	253.900000;
2	0.0	0.0	3	0.2	0.163400	139.300000;
	2	 0.0	 0.0	 3	   0.000229	   0.252800	 248.300000;
2	0.0	0.0	3	0.2	0.538400	276.700000;
2	0.0	0.0	3	0.2	0.143800	2923.000000;
	2	 0.0	 0.0	 3	   0.073260	  56.330000	 258.100000;
	2	 0.0	 0.0	 3	   0.020190	  29.700000	 266.800000;
2	0.0	0.0	3	0.2	0.843900	4482.000000;
2	0.0	0.0	3	0.2	1.398000	1462.000000;
	2	 0.0	 0.0	 3	   0.014640	  25.260000	 335.700000;
2	0.0	0.0	3	0.2	0.992400	1407.000000;
	2	 0.0	 0.0	 3	   0.021750	  20.020000	 320.300000;
	2	 0.0	 0.0	 3	   0.000104	   0.139800	 7776.000000;
2	0.0	0.0	3	0.2	1.649000	188.500000;
2	0.0	0.0	3	0.2	0.991600	1142.000000;
2	0.0	0.0	3	0.2	0.409300	200.700000;
2	0.0	0.0	3	0.2	0.708500	573.300000;
2	0.0	0.0	3	0.2	1.241000	1320.000000;
2	0.0	0.0	3	0.2	4.780000	187.600000;
2	0.0	0.0	3	0.2	4.772000	205.600000;
2	0.0	0.0	3	0.2	0.989800	197.600000;
	2	 0.0	 0.0	 3	   0.014820	  25.450000	 255.900000;
2	0.0	0.0	3	0.2	0.759300	3547.000000;
	2	 0.0	 0.0	 3	   0.073260	  56.330000	 234.100000;
2	0.0	0.0	3	0.2	0.285200	221.700000;
2	0.0	0.0	3	0.2	4.539000	139.000000;
2	0.0	0.0	3	0.2	4.660000	156.600000;
2	0.0	0.0	3	0.2	0.752900	534.100000;
2	0.0	0.0	3	0.2	0.211600	38700.000000;
2	0.0	0.0	3	0.2	0.701700	238.900000;
2	0.0	0.0	3	0.2	0.406800	12390.000000;
	2	 0.0	 0.0	 3	   0.000228	   0.206800	 5257.000000;
2	0.0	0.0	3	0.2	25.560000	834.600000;
2	0.0	0.0	3	0.2	10.410000	1198.000000;
	2	 0.0	 0.0	 3	   0.364400	   4.180000	 560.400000;
	2	 0.0	 0.0	 3	   0.000239	   0.244800	 2311.000000;
	2	 0.0	 0.0	 3	   0.000254	   0.230000	 5323.000000;
	2	 0.0	 0.0	 3	   0.067800	  53.980000	 329.200000;
2	0.0	0.0	3	0.2	14.050000	477.100000;
2	0.0	0.0	3	0.2	0.803200	1070.000000;
2	0.0	0.0	3	0.2	1.748000	1504.000000;
2	0.0	0.0	3	0.2	1.063000	159.500000;
2	0.0	0.0	3	0.2	0.406500	724.400000;
	2	 0.0	 0.0	 3	 375.100000	 2996.000000	 -303.351000;
2	0.0	0.0	3	0.2	0.721700	117.800000;
2	0.0	0.0	3	0.2	2.786000	4701.000000;
2	0.0	0.0	3	0.2	0.111600	3164.000000;
	2	 0.0	 0.0	 3	 286.800000	 4320.000000	 -421.800000;
2	0.0	0.0	3	0.2	0.787400	874.900000;
	2	 0.0	 0.0	 3	 124.100000	 3674.000000	 -316.100000;
2	0.0	0.0	3	0.2	0.660700	251.400000;
	2	 0.0	 0.0	 3	   0.033560	  35.150000	 3301.000000;
2	0.0	0.0	3	0.2	0.111500	1491.000000;
2	0.0	0.0	3	0.2	0.622300	883.100000;
2	0.0	0.0	3	0.2	1.586000	1244.000000;
	2	 0.0	 0.0	 3	   0.001663	   0.354700	 183.200000;
2	0.0	0.0	3	0.2	0.964900	215.700000;
2	0.0	0.0	3	0.2	0.453000	222.200000;
2	0.0	0.0	3	0.2	0.068170	1559.000000;
2	0.0	0.0	3	0.2	9.816000	232.800000;
2	0.0	0.0	3	0.2	5.583000	177.600000;
2	0.0	0.0	3	0.2	4.335000	296.700000;
2	0.0	0.0	3	0.2	14.770000	193.800000;
2	0.0	0.0	3	0.2	12.200000	123.800000;
2	0.0	0.0	3	0.2	12.550000	259.500000;
...
];

%% storage data
%	bus	energy	energy_rating	charge_rating	discharge_rating	thermal_rating	qmin	qmax	r	x	standby_loss	status
mpc.storage = [
	792	0.0	0.0	1.00	1773.5925	886.7962	638.4933	0.9	0.85	1000	-1000	1000	0.1	0.01	0	0	1;
	1141	0.0	0.0	1.00	1025.6085	512.8043	369.2191	0.9	0.85	1000	-1000	1000	0.1	0.01	0	0	1;
	113	0.0	0.0	1.00	947.1090	473.5545	340.9592	0.9	0.85	1000	-1000	1000	0.1	0.01	0	0	1;
	394	0.0	0.0	1.00	899.3895	449.6947	323.7802	0.9	0.85	1000	-1000	1000	0.1	0.01	0	0	1;
	1591	0.0	0.0	1.00	872.2320	436.1160	314.0035	0.9	0.85	1000	-1000	1000	0.1	0.01	0	0	1;
	359	0.0	0.0	1.00	715.9305	357.9652	257.7350	0.9	0.85	1000	-1000	1000	0.1	0.01	0	0	1;
	2427	0.0	0.0	1.00	678.4620	339.2310	244.2463	0.9	0.85	1000	-1000	1000	0.1	0.01	0	0	1;
	87	0.0	0.0	1.00	660.1440	330.0720	237.6518	0.9	0.85	1000	-1000	1000	0.1	0.01	0	0	1;
	2828	0.0	0.0	1.00	584.6040	292.3020	210.4574	0.9	0.85	1000	-1000	1000	0.1	0.01	0	0	1;
	2050	0.0	0.0	1.00	556.4760	278.2380	200.3314	0.9	0.85	1000	-1000	1000	0.1	0.01	0	0	1;
	1579	0.0	0.0	1.00	550.5390	275.2695	198.1940	0.9	0.85	1000	-1000	1000	0.1	0.01	0	0	1;
	2406	0.0	0.0	1.00	539.9565	269.9783	194.3843	0.9	0.85	1000	-1000	1000	0.1	0.01	0	0	1;
	1688	0.0	0.0	1.00	527.2245	263.6123	189.8008	0.9	0.85	1000	-1000	1000	0.1	0.01	0	0	1;
	2091	0.0	0.0	1.00	520.2285	260.1143	187.2823	0.9	0.85	1000	-1000	1000	0.1	0.01	0	0	1;
	1449	0.0	0.0	1.00	486.2850	243.1425	175.0626	0.9	0.85	1000	-1000	1000	0.1	0.01	0	0	1;
	2265	0.0	0.0	1.00	482.7180	241.3590	173.7785	0.9	0.85	1000	-1000	1000	0.1	0.01	0	0	1;
	655	0.0	0.0	1.00	466.8825	233.4412	168.0777	0.9	0.85	1000	-1000	1000	0.1	0.01	0	0	1;
	1555	0.0	0.0	1.00	465.3285	232.6642	167.5183	0.9	0.85	1000	-1000	1000	0.1	0.01	0	0	1;
	292	0.0	0.0	1.00	452.7675	226.3838	162.9963	0.9	0.85	1000	-1000	1000	0.1	0.01	0	0	1;
	652	0.0	0.0	1.00	451.5210	225.7605	162.5476	0.9	0.85	1000	-1000	1000	0.1	0.01	0	0	1;
	2102	0.0	0.0	1.00	441.1815	220.5907	158.8253	0.9	0.85	1000	-1000	1000	0.1	0.01	0	0	1;
	2075	0.0	0.0	1.00	439.5165	219.7583	158.2259	0.9	0.85	1000	-1000	1000	0.1	0.01	0	0	1;
	1405	0.0	0.0	1.00	436.1580	218.0790	157.0169	0.9	0.85	1000	-1000	1000	0.1	0.01	0	0	1;
	808	0.0	0.0	1.00	435.0060	217.5030	156.6022	0.9	0.85	1000	-1000	1000	0.1	0.01	0	0	1;
	1337	0.0	0.0	1.00	433.2705	216.6352	155.9774	0.9	0.85	1000	-1000	1000	0.1	0.01	0	0	1;
	1149	0.0	0.0	1.00	432.9585	216.4793	155.8651	0.9	0.85	1000	-1000	1000	0.1	0.01	0	0	1;
	834	0.0	0.0	1.00	424.2495	212.1248	152.7298	0.9	0.85	1000	-1000	1000	0.1	0.01	0	0	1;
	1581	0.0	0.0	1.00	412.4535	206.2267	148.4833	0.9	0.85	1000	-1000	1000	0.1	0.01	0	0	1;
	725	0.0	0.0	1.00	403.3170	201.6585	145.1941	0.9	0.85	1000	-1000	1000	0.1	0.01	0	0	1;
	845	0.0	0.0	1.00	403.2975	201.6488	145.1871	0.9	0.85	1000	-1000	1000	0.1	0.01	0	0	1;
	1798	0.0	0.0	1.00	399.7710	199.8855	143.9176	0.9	0.85	1000	-1000	1000	0.1	0.01	0	0	1;
	665	0.0	0.0	1.00	394.0800	197.0400	141.8688	0.9	0.85	1000	-1000	1000	0.1	0.01	0	0	1;
	1713	0.0	0.0	1.00	391.2915	195.6457	140.8649	0.9	0.85	1000	-1000	1000	0.1	0.01	0	0	1;
	2007	0.0	0.0	1.00	390.3885	195.1943	140.5399	0.9	0.85	1000	-1000	1000	0.1	0.01	0	0	1;
	14	0.0	0.0	1.00	389.2125	194.6063	140.1165	0.9	0.85	1000	-1000	1000	0.1	0.01	0	0	1;
	721	0.0	0.0	1.00	383.2260	191.6130	137.9614	0.9	0.85	1000	-1000	1000	0.1	0.01	0	0	1;
	662	0.0	0.0	1.00	382.4640	191.2320	137.6870	0.9	0.85	1000	-1000	1000	0.1	0.01	0	0	1;
	1868	0.0	0.0	1.00	382.0890	191.0445	137.5520	0.9	0.85	1000	-1000	1000	0.1	0.01	0	0	1;
	1800	0.0	0.0	1.00	375.3990	187.6995	135.1436	0.9	0.85	1000	-1000	1000	0.1	0.01	0	0	1;
	1994	0.0	0.0	1.00	359.0760	179.5380	129.2674	0.9	0.85	1000	-1000	1000	0.1	0.01	0	0	1;
	2074	0.0	0.0	1.00	355.1370	177.5685	127.8493	0.9	0.85	1000	-1000	1000	0.1	0.01	0	0	1;
	2049	0.0	0.0	1.00	354.5805	177.2903	127.6490	0.9	0.85	1000	-1000	1000	0.1	0.01	0	0	1;
	2208	0.0	0.0	1.00	350.3670	175.1835	126.1321	0.9	0.85	1000	-1000	1000	0.1	0.01	0	0	1;
	1874	0.0	0.0	1.00	349.5540	174.7770	125.8394	0.9	0.85	1000	-1000	1000	0.1	0.01	0	0	1;
	1352	0.0	0.0	1.00	346.0965	173.0482	124.5947	0.9	0.85	1000	-1000	1000	0.1	0.01	0	0	1;
	1362	0.0	0.0	1.00	340.7190	170.3595	122.6588	0.9	0.85	1000	-1000	1000	0.1	0.01	0	0	1;
	740	0.0	0.0	1.00	333.7650	166.8825	120.1554	0.9	0.85	1000	-1000	1000	0.1	0.01	0	0	1;
	579	0.0	0.0	1.00	330.5460	165.2730	118.9966	0.9	0.85	1000	-1000	1000	0.1	0.01	0	0	1;
	1367	0.0	0.0	1.00	330.4020	165.2010	118.9447	0.9	0.85	1000	-1000	1000	0.1	0.01	0	0	1;
	1494	0.0	0.0	1.00	325.7160	162.8580	117.2578	0.9	0.85	1000	-1000	1000	0.1	0.01	0	0	1;
	2230	0.0	0.0	1.00	324.9615	162.4808	116.9861	0.9	0.85	1000	-1000	1000	0.1	0.01	0	0	1;
	623	0.0	0.0	1.00	322.7190	161.3595	116.1788	0.9	0.85	1000	-1000	1000	0.1	0.01	0	0	1;
	868	0.0	0.0	1.00	319.3290	159.6645	114.9584	0.9	0.85	1000	-1000	1000	0.1	0.01	0	0	1;
	1774	0.0	0.0	1.00	315.8625	157.9312	113.7105	0.9	0.85	1000	-1000	1000	0.1	0.01	0	0	1;
	1557	0.0	0.0	1.00	310.7280	155.3640	111.8621	0.9	0.85	1000	-1000	1000	0.1	0.01	0	0	1;
	2184	0.0	0.0	1.00	310.4235	155.2117	111.7525	0.9	0.85	1000	-1000	1000	0.1	0.01	0	0	1;
	1620	0.0	0.0	1.00	310.1730	155.0865	111.6623	0.9	0.85	1000	-1000	1000	0.1	0.01	0	0	1;
	2033	0.0	0.0	1.00	305.8080	152.9040	110.0909	0.9	0.85	1000	-1000	1000	0.1	0.01	0	0	1;
	2027	0.0	0.0	1.00	305.5935	152.7968	110.0137	0.9	0.85	1000	-1000	1000	0.1	0.01	0	0	1;
	2183	0.0	0.0	1.00	304.6050	152.3025	109.6578	0.9	0.85	1000	-1000	1000	0.1	0.01	0	0	1;
	1754	0.0	0.0	1.00	302.5755	151.2878	108.9272	0.9	0.85	1000	-1000	1000	0.1	0.01	0	0	1;
	642	0.0	0.0	1.00	300.2370	150.1185	108.0853	0.9	0.85	1000	-1000	1000	0.1	0.01	0	0	1;
	800	0.0	0.0	1.00	300.0150	150.0075	108.0054	0.9	0.85	1000	-1000	1000	0.1	0.01	0	0	1;
	1989	0.0	0.0	1.00	298.6050	149.3025	107.4978	0.9	0.85	1000	-1000	1000	0.1	0.01	0	0	1;
	632	0.0	0.0	1.00	298.4070	149.2035	107.4265	0.9	0.85	1000	-1000	1000	0.1	0.01	0	0	1;
	2192	0.0	0.0	1.00	297.1620	148.5810	106.9783	0.9	0.85	1000	-1000	1000	0.1	0.01	0	0	1;
	413	0.0	0.0	1.00	295.0065	147.5032	106.2023	0.9	0.85	1000	-1000	1000	0.1	0.01	0	0	1;
	1951	0.0	0.0	1.00	287.5515	143.7757	103.5185	0.9	0.85	1000	-1000	1000	0.1	0.01	0	0	1;
	2232	0.0	0.0	1.00	285.8820	142.9410	102.9175	0.9	0.85	1000	-1000	1000	0.1	0.01	0	0	1;
	54	0.0	0.0	1.00	285.0540	142.5270	102.6194	0.9	0.85	1000	-1000	1000	0.1	0.01	0	0	1;
	701	0.0	0.0	1.00	285.0540	142.5270	102.6194	0.9	0.85	1000	-1000	1000	0.1	0.01	0	0	1;
	737	0.0	0.0	1.00	284.5395	142.2698	102.4342	0.9	0.85	1000	-1000	1000	0.1	0.01	0	0	1;
	1451	0.0	0.0	1.00	282.5085	141.2543	101.7031	0.9	0.85	1000	-1000	1000	0.1	0.01	0	0	1;
	593	0.0	0.0	1.00	280.5855	140.2927	101.0108	0.9	0.85	1000	-1000	1000	0.1	0.01	0	0	1;
	630	0.0	0.0	1.00	275.6445	137.8222	99.2320	0.9	0.85	1000	-1000	1000	0.1	0.01	0	0	1;
	585	0.0	0.0	1.00	272.3550	136.1775	98.0478	0.9	0.85	1000	-1000	1000	0.1	0.01	0	0	1;
	1011	0.0	0.0	1.00	267.8430	133.9215	96.4235	0.9	0.85	1000	-1000	1000	0.1	0.01	0	0	1;
	2163	0.0	0.0	1.00	265.0005	132.5002	95.4002	0.9	0.85	1000	-1000	1000	0.1	0.01	0	0	1;
	89	0.0	0.0	1.00	263.3535	131.6767	94.8073	0.9	0.85	1000	-1000	1000	0.1	0.01	0	0	1;
	1502	0.0	0.0	1.00	262.4325	131.2163	94.4757	0.9	0.85	1000	-1000	1000	0.1	0.01	0	0	1;
	1793	0.0	0.0	1.00	258.9630	129.4815	93.2267	0.9	0.85	1000	-1000	1000	0.1	0.01	0	0	1;
	1715	0.0	0.0	1.00	252.9960	126.4980	91.0786	0.9	0.85	1000	-1000	1000	0.1	0.01	0	0	1;
	769	0.0	0.0	1.00	251.1675	125.5837	90.4203	0.9	0.85	1000	-1000	1000	0.1	0.01	0	0	1;
	380	0.0	0.0	1.00	250.8285	125.4142	90.2983	0.9	0.85	1000	-1000	1000	0.1	0.01	0	0	1;
	1335	0.0	0.0	1.00	249.8625	124.9312	89.9505	0.9	0.85	1000	-1000	1000	0.1	0.01	0	0	1;
	1344	0.0	0.0	1.00	249.5265	124.7632	89.8295	0.9	0.85	1000	-1000	1000	0.1	0.01	0	0	1;
	2448	0.0	0.0	1.00	248.9475	124.4737	89.6211	0.9	0.85	1000	-1000	1000	0.1	0.01	0	0	1;
	823	0.0	0.0	1.00	247.9740	123.9870	89.2706	0.9	0.85	1000	-1000	1000	0.1	0.01	0	0	1;
	1472	0.0	0.0	1.00	247.8285	123.9142	89.2183	0.9	0.85	1000	-1000	1000	0.1	0.01	0	0	1;
	1594	0.0	0.0	1.00	247.7220	123.8610	89.1799	0.9	0.85	1000	-1000	1000	0.1	0.01	0	0	1;
	2048	0.0	0.0	1.00	246.3240	123.1620	88.6766	0.9	0.85	1000	-1000	1000	0.1	0.01	0	0	1;
	1460	0.0	0.0	1.00	244.5300	122.2650	88.0308	0.9	0.85	1000	-1000	1000	0.1	0.01	0	0	1;
	2064	0.0	0.0	1.00	241.7550	120.8775	87.0318	0.9	0.85	1000	-1000	1000	0.1	0.01	0	0	1;
	1886	0.0	0.0	1.00	241.7220	120.8610	87.0199	0.9	0.85	1000	-1000	1000	0.1	0.01	0	0	1;
	1926	0.0	0.0	1.00	236.4810	118.2405	85.1332	0.9	0.85	1000	-1000	1000	0.1	0.01	0	0	1;
	2068	0.0	0.0	1.00	235.8285	117.9142	84.8983	0.9	0.85	1000	-1000	1000	0.1	0.01	0	0	1;
	2147	0.0	0.0	1.00	234.5940	117.2970	84.4538	0.9	0.85	1000	-1000	1000	0.1	0.01	0	0	1;
	2185	0.0	0.0	1.00	232.2810	116.1405	83.6212	0.9	0.85	1000	-1000	1000	0.1	0.01	0	0	1;
	847	0.0	0.0	1.00	230.8755	115.4377	83.1152	0.9	0.85	1000	-1000	1000	0.1	0.01	0	0	1;
	1544	0.0	0.0	1.00	228.7095	114.3548	82.3354	0.9	0.85	1000	-1000	1000	0.1	0.01	0	0	1;
	1828	0.0	0.0	1.00	222.8805	111.4402	80.2370	0.9	0.85	1000	-1000	1000	0.1	0.01	0	0	1;
	1078	0.0	0.0	1.00	221.7870	110.8935	79.8433	0.9	0.85	1000	-1000	1000	0.1	0.01	0	0	1;
	2152	0.0	0.0	1.00	216.9135	108.4567	78.0889	0.9	0.85	1000	-1000	1000	0.1	0.01	0	0	1;
	177	0.0	0.0	1.00	215.0910	107.5455	77.4328	0.9	0.85	1000	-1000	1000	0.1	0.01	0	0	1;
	1952	0.0	0.0	1.00	214.9695	107.4847	77.3890	0.9	0.85	1000	-1000	1000	0.1	0.01	0	0	1;
	2283	0.0	0.0	1.00	214.4340	107.2170	77.1962	0.9	0.85	1000	-1000	1000	0.1	0.01	0	0	1;
	97	0.0	0.0	1.00	212.8110	106.4055	76.6120	0.9	0.85	1000	-1000	1000	0.1	0.01	0	0	1;
	47	0.0	0.0	1.00	212.3055	106.1527	76.4300	0.9	0.85	1000	-1000	1000	0.1	0.01	0	0	1;
	691	0.0	0.0	1.00	212.3055	106.1527	76.4300	0.9	0.85	1000	-1000	1000	0.1	0.01	0	0	1;
	1869	0.0	0.0	1.00	211.9170	105.9585	76.2901	0.9	0.85	1000	-1000	1000	0.1	0.01	0	0	1;
	27	0.0	0.0	1.00	209.9040	104.9520	75.5654	0.9	0.85	1000	-1000	1000	0.1	0.01	0	0	1;
	635	0.0	0.0	1.00	209.9040	104.9520	75.5654	0.9	0.85	1000	-1000	1000	0.1	0.01	0	0	1;
	1026	0.0	0.0	1.00	206.4555	103.2278	74.3240	0.9	0.85	1000	-1000	1000	0.1	0.01	0	0	1;
	2849	0.0	0.0	1.00	202.8525	101.4263	73.0269	0.9	0.85	1000	-1000	1000	0.1	0.01	0	0	1;
	2199	0.0	0.0	1.00	198.3135	99.1568	71.3929	0.9	0.85	1000	-1000	1000	0.1	0.01	0	0	1;
	160	0.0	0.0	1.00	196.9110	98.4555	70.8880	0.9	0.85	1000	-1000	1000	0.1	0.01	0	0	1;
	684	0.0	0.0	1.00	196.0485	98.0243	70.5775	0.9	0.85	1000	-1000	1000	0.1	0.01	0	0	1;
	1155	0.0	0.0	1.00	194.9295	97.4648	70.1746	0.9	0.85	1000	-1000	1000	0.1	0.01	0	0	1;
	2447	0.0	0.0	1.00	194.9295	97.4648	70.1746	0.9	0.85	1000	-1000	1000	0.1	0.01	0	0	1;
	1389	0.0	0.0	1.00	192.6105	96.3053	69.3398	0.9	0.85	1000	-1000	1000	0.1	0.01	0	0	1;
	2766	0.0	0.0	1.00	191.7945	95.8972	69.0460	0.9	0.85	1000	-1000	1000	0.1	0.01	0	0	1;
	2445	0.0	0.0	1.00	191.4720	95.7360	68.9299	0.9	0.85	1000	-1000	1000	0.1	0.01	0	0	1;
	2212	0.0	0.0	1.00	191.3775	95.6887	68.8959	0.9	0.85	1000	-1000	1000	0.1	0.01	0	0	1;
	93	0.0	0.0	1.00	190.0725	95.0362	68.4261	0.9	0.85	1000	-1000	1000	0.1	0.01	0	0	1;
	1061	0.0	0.0	1.00	189.9060	94.9530	68.3662	0.9	0.85	1000	-1000	1000	0.1	0.01	0	0	1;
	2191	0.0	0.0	1.00	189.1785	94.5892	68.1043	0.9	0.85	1000	-1000	1000	0.1	0.01	0	0	1;
	16	0.0	0.0	1.00	185.6520	92.8260	66.8347	0.9	0.85	1000	-1000	1000	0.1	0.01	0	0	1;
	1442	0.0	0.0	1.00	183.6870	91.8435	66.1273	0.9	0.85	1000	-1000	1000	0.1	0.01	0	0	1;
	1359	0.0	0.0	1.00	183.3285	91.6642	65.9983	0.9	0.85	1000	-1000	1000	0.1	0.01	0	0	1;
	2004	0.0	0.0	1.00	183.0525	91.5263	65.8989	0.9	0.85	1000	-1000	1000	0.1	0.01	0	0	1;
	713	0.0	0.0	1.00	179.8860	89.9430	64.7590	0.9	0.85	1000	-1000	1000	0.1	0.01	0	0	1;
	1585	0.0	0.0	1.00	178.6095	89.3047	64.2994	0.9	0.85	1000	-1000	1000	0.1	0.01	0	0	1;
	1971	0.0	0.0	1.00	177.7770	88.8885	63.9997	0.9	0.85	1000	-1000	1000	0.1	0.01	0	0	1;
	1041	0.0	0.0	1.00	177.6930	88.8465	63.9695	0.9	0.85	1000	-1000	1000	0.1	0.01	0	0	1;
	603	0.0	0.0	1.00	176.4165	88.2083	63.5099	0.9	0.85	1000	-1000	1000	0.1	0.01	0	0	1;
	334	0.0	0.0	1.00	172.9755	86.4877	62.2712	0.9	0.85	1000	-1000	1000	0.1	0.01	0	0	1;
	588	0.0	0.0	1.00	172.3230	86.1615	62.0363	0.9	0.85	1000	-1000	1000	0.1	0.01	0	0	1;
	132	0.0	0.0	1.00	169.8945	84.9472	61.1620	0.9	0.85	1000	-1000	1000	0.1	0.01	0	0	1;
	5	0.0	0.0	1.00	169.4370	84.7185	60.9973	0.9	0.85	1000	-1000	1000	0.1	0.01	0	0	1;
	575	0.0	0.0	1.00	169.4370	84.7185	60.9973	0.9	0.85	1000	-1000	1000	0.1	0.01	0	0	1;
	1340	0.0	0.0	1.00	166.8135	83.4068	60.0529	0.9	0.85	1000	-1000	1000	0.1	0.01	0	0	1;
	1578	0.0	0.0	1.00	166.6740	83.3370	60.0026	0.9	0.85	1000	-1000	1000	0.1	0.01	0	0	1;
	666	0.0	0.0	1.00	163.8345	81.9172	58.9804	0.9	0.85	1000	-1000	1000	0.1	0.01	0	0	1;
	366	0.0	0.0	1.00	160.8180	80.4090	57.8945	0.9	0.85	1000	-1000	1000	0.1	0.01	0	0	1;
	2457	0.0	0.0	1.00	160.3425	80.1713	57.7233	0.9	0.85	1000	-1000	1000	0.1	0.01	0	0	1;
	360	0.0	0.0	1.00	159.6105	79.8053	57.4598	0.9	0.85	1000	-1000	1000	0.1	0.01	0	0	1;
	2806	0.0	0.0	1.00	159.3195	79.6598	57.3550	0.9	0.85	1000	-1000	1000	0.1	0.01	0	0	1;
	1910	0.0	0.0	1.00	158.8590	79.4295	57.1892	0.9	0.85	1000	-1000	1000	0.1	0.01	0	0	1;
	2282	0.0	0.0	1.00	156.8220	78.4110	56.4559	0.9	0.85	1000	-1000	1000	0.1	0.01	0	0	1;
	790	0.0	0.0	1.00	156.7350	78.3675	56.4246	0.9	0.85	1000	-1000	1000	0.1	0.01	0	0	1;
	2085	0.0	0.0	1.00	156.0600	78.0300	56.1816	0.9	0.85	1000	-1000	1000	0.1	0.01	0	0	1;
	689	0.0	0.0	1.00	153.7680	76.8840	55.3565	0.9	0.85	1000	-1000	1000	0.1	0.01	0	0	1;
	1811	0.0	0.0	1.00	153.6300	76.8150	55.3068	0.9	0.85	1000	-1000	1000	0.1	0.01	0	0	1;
	1334	0.0	0.0	1.00	152.2410	76.1205	54.8068	0.9	0.85	1000	-1000	1000	0.1	0.01	0	0	1;
	9	0.0	0.0	1.00	151.1595	75.5797	54.4174	0.9	0.85	1000	-1000	1000	0.1	0.01	0	0	1;
	586	0.0	0.0	1.00	151.1595	75.5797	54.4174	0.9	0.85	1000	-1000	1000	0.1	0.01	0	0	1;
	451	0.0	0.0	1.00	151.0350	75.5175	54.3726	0.9	0.85	1000	-1000	1000	0.1	0.01	0	0	1;
	814	0.0	0.0	1.00	150.9120	75.4560	54.3283	0.9	0.85	1000	-1000	1000	0.1	0.01	0	0	1;
	26	0.0	0.0	1.00	150.7980	75.3990	54.2873	0.9	0.85	1000	-1000	1000	0.1	0.01	0	0	1;
	633	0.0	0.0	1.00	150.7980	75.3990	54.2873	0.9	0.85	1000	-1000	1000	0.1	0.01	0	0	1;
	1169	0.0	0.0	1.00	146.1345	73.0673	52.6084	0.9	0.85	1000	-1000	1000	0.1	0.01	0	0	1;
	2486	0.0	0.0	1.00	146.1345	73.0673	52.6084	0.9	0.85	1000	-1000	1000	0.1	0.01	0	0	1;
	34	0.0	0.0	1.00	145.3725	72.6863	52.3341	0.9	0.85	1000	-1000	1000	0.1	0.01	0	0	1;
	657	0.0	0.0	1.00	145.3725	72.6863	52.3341	0.9	0.85	1000	-1000	1000	0.1	0.01	0	0	1;
	1463	0.0	0.0	1.00	144.9420	72.4710	52.1791	0.9	0.85	1000	-1000	1000	0.1	0.01	0	0	1;
	1546	0.0	0.0	1.00	143.9145	71.9573	51.8092	0.9	0.85	1000	-1000	1000	0.1	0.01	0	0	1;
	1632	0.0	0.0	1.00	143.0820	71.5410	51.5095	0.9	0.85	1000	-1000	1000	0.1	0.01	0	0	1;
	1990	0.0	0.0	1.00	142.3875	71.1937	51.2595	0.9	0.85	1000	-1000	1000	0.1	0.01	0	0	1;
	2140	0.0	0.0	1.00	142.3875	71.1937	51.2595	0.9	0.85	1000	-1000	1000	0.1	0.01	0	0	1;
	2226	0.0	0.0	1.00	142.3200	71.1600	51.2352	0.9	0.85	1000	-1000	1000	0.1	0.01	0	0	1;
	574	0.0	0.0	1.00	140.4870	70.2435	50.5753	0.9	0.85	1000	-1000	1000	0.1	0.01	0	0	1;
	2300	0.0	0.0	1.00	140.4450	70.2225	50.5602	0.9	0.85	1000	-1000	1000	0.1	0.01	0	0	1;
	2965	0.0	0.0	1.00	140.1825	70.0913	50.4657	0.9	0.85	1000	-1000	1000	0.1	0.01	0	0	1;
	746	0.0	0.0	1.00	139.2510	69.6255	50.1304	0.9	0.85	1000	-1000	1000	0.1	0.01	0	0	1;
	1537	0.0	0.0	1.00	138.9180	69.4590	50.0105	0.9	0.85	1000	-1000	1000	0.1	0.01	0	0	1;
	1326	0.0	0.0	1.00	138.1665	69.0833	49.7399	0.9	0.85	1000	-1000	1000	0.1	0.01	0	0	1;
	1617	0.0	0.0	1.00	136.4205	68.2103	49.1114	0.9	0.85	1000	-1000	1000	0.1	0.01	0	0	1;
	781	0.0	0.0	1.00	136.0605	68.0302	48.9818	0.9	0.85	1000	-1000	1000	0.1	0.01	0	0	1;
	1157	0.0	0.0	1.00	136.0005	68.0002	48.9602	0.9	0.85	1000	-1000	1000	0.1	0.01	0	0	1;
	2438	0.0	0.0	1.00	135.9555	67.9778	48.9440	0.9	0.85	1000	-1000	1000	0.1	0.01	0	0	1;
	608	0.0	0.0	1.00	133.5750	66.7875	48.0870	0.9	0.85	1000	-1000	1000	0.1	0.01	0	0	1;
	801	0.0	0.0	1.00	131.9940	65.9970	47.5178	0.9	0.85	1000	-1000	1000	0.1	0.01	0	0	1;
	193	0.0	0.0	1.00	131.7165	65.8582	47.4179	0.9	0.85	1000	-1000	1000	0.1	0.01	0	0	1;
	664	0.0	0.0	1.00	131.4795	65.7398	47.3326	0.9	0.85	1000	-1000	1000	0.1	0.01	0	0	1;
	559	0.0	0.0	1.00	129.5325	64.7662	46.6317	0.9	0.85	1000	-1000	1000	0.1	0.01	0	0	1;
	1343	0.0	0.0	1.00	128.9265	64.4632	46.4135	0.9	0.85	1000	-1000	1000	0.1	0.01	0	0	1;
	1361	0.0	0.0	1.00	128.2320	64.1160	46.1635	0.9	0.85	1000	-1000	1000	0.1	0.01	0	0	1;
	2479	0.0	0.0	1.00	127.6635	63.8317	45.9589	0.9	0.85	1000	-1000	1000	0.1	0.01	0	0	1;
	2481	0.0	0.0	1.00	127.2480	63.6240	45.8093	0.9	0.85	1000	-1000	1000	0.1	0.01	0	0	1;
	928	0.0	0.0	1.00	127.2345	63.6172	45.8044	0.9	0.85	1000	-1000	1000	0.1	0.01	0	0	1;
	2483	0.0	0.0	1.00	125.3175	62.6587	45.1143	0.9	0.85	1000	-1000	1000	0.1	0.01	0	0	1;
	1876	0.0	0.0	1.00	124.8150	62.4075	44.9334	0.9	0.85	1000	-1000	1000	0.1	0.01	0	0	1;
	1980	0.0	0.0	1.00	124.6245	62.3122	44.8648	0.9	0.85	1000	-1000	1000	0.1	0.01	0	0	1;
	1570	0.0	0.0	1.00	123.6525	61.8263	44.5149	0.9	0.85	1000	-1000	1000	0.1	0.01	0	0	1;
	1732	0.0	0.0	1.00	123.6525	61.8263	44.5149	0.9	0.85	1000	-1000	1000	0.1	0.01	0	0	1;
	32	0.0	0.0	1.00	123.5970	61.7985	44.4949	0.9	0.85	1000	-1000	1000	0.1	0.01	0	0	1;
	298	0.0	0.0	1.00	123.3750	61.6875	44.4150	0.9	0.85	1000	-1000	1000	0.1	0.01	0	0	1;
	109	0.0	0.0	1.00	122.5965	61.2982	44.1347	0.9	0.85	1000	-1000	1000	0.1	0.01	0	0	1;
	30	0.0	0.0	1.00	122.0715	61.0358	43.9457	0.9	0.85	1000	-1000	1000	0.1	0.01	0	0	1;
	640	0.0	0.0	1.00	122.0715	61.0358	43.9457	0.9	0.85	1000	-1000	1000	0.1	0.01	0	0	1;
...
];

%% branch data
%	fbus	tbus	r	x	b	rateA	rateB	rateC	ratio	angle	status	angmin	angmax
mpc.branch = [
	1	 31	 0.0013	 0.0099	 0.02132	 260.0	 312.0	 390.0	 0.0	 0.0	 1	 -30.0	 30.0;
	3	 7	 0.07479	 0.29968	 0.0	 260.0	 312.0	 390.0	 0.0	 0.0	 1	 -30.0	 30.0;
	3	 10	 1.0352	 0.9	 0.0	 260.0	 312.0	 390.0	 0.0	 0.0	 1	 -30.0	 30.0;
	3	 28	 0.03978	 0.26486	 0.0	 260.0	 312.0	 390.0	 0.0	 0.0	 1	 -30.0	 30.0;
	3	 29	 1.0789	 0.9	 0.0	 260.0	 312.0	 390.0	 0.0	 0.0	 1	 -30.0	 30.0;
	3	 33	 0.13857	 0.28969	 0.0	 260.0	 312.0	 390.0	 0.0	 0.0	 1	 -30.0	 30.0;
	3	 44	 0.07496	 0.30013	 0.0	 260.0	 312.0	 390.0	 0.0	 0.0	 1	 -30.0	 30.0;
	4	 9	 0.39394	 0.9	 0.0	 260.0	 312.0	 390.0	 0.0	 0.0	 1	 -30.0	 30.0;
	4	 15	 0.0111	 0.16469	 0.0	 260.0	 312.0	 390.0	 0.0	 0.0	 1	 -30.0	 30.0;
	4	 33	 0.05555	 0.36498	 0.0	 260.0	 312.0	 390.0	 0.0	 0.0	 1	 -30.0	 30.0;
	5	 9	 0.29041	 0.5542	 0.0	 260.0	 312.0	 390.0	 0.0	 0.0	 1	 -30.0	 30.0;
	5	 47	 0.15248	 0.33587	 0.0	 260.0	 312.0	 390.0	 0.0	 0.0	 1	 -30.0	 30.0;
...